19
-5.3744056229358932e+02 frame 0   xyz file generated by TeraChem
Tc     0.0000000000    0.0000000000    0.0000000000
O     0.0000000000    2.2900000000    0.0000000000
H     0.6214920000    2.8956070000   -0.4768750000
H    -0.6211790000    2.8955270000    0.4773730000
O     2.2900000000    0.0000000000    0.0000000000
H     2.7460100000   -0.3537380000   -0.8046200000
H     2.7163980000   -0.4759180000    0.7564110000
O     0.0000000000   -2.2900000000    0.0000000000
H     0.6966660000   -2.8955430000   -0.3583280000
H    -0.6964040000   -2.8955040000    0.3588880000
O    -2.2900000000    0.0000000000    0.0000000000
H    -2.7460100000   -0.3537370000    0.8046220000
H    -2.7164150000   -0.4759030000   -0.7564110000
O     0.0000000000    0.0000000000    2.2900000000
H     0.7728560000    0.3533680000    2.7981910000
H    -0.7916630000    0.2804930000    2.8144310000
O     0.0000000000    0.0000000000   -2.2900000000
H    -0.7728570000    0.3533110000   -2.7982270000
H     0.7916610000    0.2804450000   -2.8144590000
