46
-3.1881959809693562e+03 frame 0   xyz file generated by TeraChem
    Mn     0.0000000000    0.0000000000    0.0000000000
     C    -1.3007760000    2.8894320000   -0.9086620000
     P     0.0309210000    1.9927330000   -0.0127610000
     C     1.1276090000    2.8226380000   -1.2327940000
     C     2.6071740000    2.5901530000   -1.1990920000
     C     2.8351310000    1.1107830000   -1.2201110000
     P     2.0054220000    0.0275340000    0.0127610000
     C     2.8858700000   -1.3183180000   -0.8875300000
     P     2.7261690000   -3.0958710000   -0.4156760000
     C     1.0916950000   -3.2006620000   -0.7390780000
     S    -0.0179960000   -1.9988830000   -0.0127610000
     C    -1.3532810000   -3.1261130000    0.3969740000
     C    -2.6370320000   -2.7403910000    0.5424390000
     C    -3.2219830000   -1.3439330000    0.4028240000
     S    -2.0183480000   -0.0213840000    0.0127610000
     C    -3.1841260000    1.1125830000   -0.7472810000
     P    -3.0741630000    2.7465480000   -0.4296410000
     C     3.6262960000   -0.9027170000   -1.9085890000
     C     3.5952550000    0.4653130000   -2.1011610000
     C     0.4918890000    3.5886180000   -2.1149290000
     C    -0.8769090000    3.6293390000   -1.9272390000
     H     3.1298820000    3.1068590000   -2.0338610000
     H     2.9971260000    2.9840960000   -0.2377120000
     H     0.7353570000   -3.8831820000   -1.5027680000
     H    -1.1110210000   -4.1745130000    0.5444830000
     H    -3.3521950000   -3.5186850000    0.7925310000
     H    -3.9786700000   -1.4029870000   -0.4070470000
     H    -3.7224720000   -1.0776500000    1.3570800000
     H    -3.8567390000    0.7657850000   -1.5240700000
     H     4.1960190000   -1.5752020000   -2.5368390000
     H     4.1387360000    0.9620870000   -2.8945160000
     H     0.9961920000    4.1336320000   -2.9026130000
     H    -1.5429330000    4.2089790000   -2.5532210000
     O     0.0000000000    0.0000000000    2.1000000000
     C    -0.0006590000   -0.0009780000    3.4421470000
     C     1.1439690000    0.3960300000    4.1417030000
     C     1.1431120000    0.3956200000    5.5403790000
     C    -0.0020240000   -0.0020920000    6.2391670000
     C    -1.1462400000   -0.3992790000    5.5388990000
     C    -1.1461660000   -0.3991490000    4.1402610000
     H     2.0314610000    0.7044580000    3.6028760000
     H     2.0284100000    0.7028260000    6.0821700000
     H    -0.0024310000   -0.0023960000    7.3214050000
     H    -2.0319510000   -0.7068360000    6.0798050000
     H    -2.0328150000   -0.7070300000    3.5999530000
     O     0.0000000000    0.0000000000   -1.6500000000
46
-3.1883210195281763e+03 frame 1   xyz file generated by TeraChem
    Mn     0.0210391679    0.0124560703    0.0019560481
     C    -1.3463087657    2.9585413727   -0.8930334737
     P     0.0509897363    2.1284866016   -0.0189900393
     C     1.1850153075    2.8954447997   -1.2441523923
     C     2.6744309915    2.6495563256   -1.2377624942
     C     2.9066722665    1.1573402517   -1.2587175040
     P     2.1392056806    0.0273671153   -0.0221369584
     C     2.9462717793   -1.3800420447   -0.9110642966
     P     2.8190093279   -3.1846915494   -0.5353314069
     C     1.1182994119   -3.2832446713   -0.7120898322
     S     0.0086667318   -2.1013649023    0.0192824029
     C    -1.3442089608   -3.1574572656    0.4667385721
     C    -2.6082178760   -2.7376013484    0.6284693457
     C    -3.2314335388   -1.3629324622    0.4870754339
     S    -2.0962096340    0.0095105187    0.0502022052
     C    -3.2577934324    1.1355243611   -0.6940822227
     P    -3.1429624688    2.8351088888   -0.4954944359
     C     3.6707719689   -0.9420988292   -1.9648091497
     C     3.6435601527    0.4792612079   -2.1616419280
     C     0.5102280646    3.6527359863   -2.1354140877
     C    -0.9089574120    3.6966634982   -1.9400019831
     H     3.1704609037    3.1466370319   -2.0867444454
     H     3.0959760446    3.0608627687   -0.3032788961
     H     0.6888162770   -3.9821422297   -1.4251874677
     H    -1.1050329921   -4.2027445485    0.6280493527
     H    -3.3239663905   -3.5055326947    0.9137738222
     H    -4.0048371599   -1.4370657739   -0.2919017895
     H    -3.7091872715   -1.0936193291    1.4404708667
     H    -3.9545064691    0.7221213358   -1.4197738994
     H     4.2199869545   -1.6155451438   -2.6179991452
     H     4.1683582517    0.9691173760   -2.9766713238
     H     1.0051835517    4.1833935305   -2.9435543869
     H    -1.5772602888    4.2644800888   -2.5823523634
     O     0.0093647632    0.0030491793    2.1048054254
     C    -0.0062159734   -0.0061780711    3.4203739240
     C     1.1278419439    0.3809990033    4.1668748557
     C     1.0836856817    0.3608982832    5.5579232576
     C    -0.0772744130   -0.0409367912    6.2322111236
     C    -1.2046980416   -0.4261849088    5.4958760436
     C    -1.1738702953   -0.4102125926    4.1045880919
     H     2.0273766674    0.6926830982    3.6483605168
     H     1.9586540623    0.6599220694    6.1257334548
     H    -0.1029440616   -0.0535320167    7.3169443788
     H    -2.1070268998   -0.7384806135    6.0118189525
     H    -2.0474797735   -0.7086503275    3.5352416552
     O     0.0332914528    0.0258923123   -1.6939178331
46
-3.1884101211670227e+03 frame 2   xyz file generated by TeraChem
    Mn     0.0653245243    0.0339318730   -0.0001780991
     C    -1.3305104924    2.9978225850   -0.9153405867
     P     0.0910694324    2.2692686955   -0.0377604658
     C     1.2317675004    2.9656345872   -1.2670413367
     C     2.7161708216    2.6772240910   -1.2681454844
     C     2.9772978899    1.1885828018   -1.3378267711
     P     2.2830202743    0.0371424294   -0.1088943785
     C     2.9931709053   -1.3901741727   -1.0067367573
     P     2.8481811934   -3.2121660634   -0.8017399228
     C     1.1337828996   -3.3901542077   -0.6390921634
     S     0.0683650259   -2.1998696617    0.0797268970
     C    -1.3223547375   -3.1392254593    0.5910458030
     C    -2.5801539717   -2.7260287416    0.7997729101
     C    -3.2219600282   -1.3698908954    0.6408334069
     S    -2.1546904971    0.0344233602    0.1217523592
     C    -3.3212747607    1.1198405579   -0.6019658142
     P    -3.1418669217    2.8457248773   -0.7028407486
     C     3.7178367124   -0.9258655777   -2.0671232284
     C     3.7039761114    0.5173903845   -2.2651071919
     C     0.5634989143    3.7384951292   -2.1661347243
     C    -0.8705249446    3.7631011127   -1.9525731616
     H     3.1895051629    3.1712457547   -2.1217537132
     H     3.1691027837    3.0866856591   -0.3540651423
     H     0.6226134350   -4.2329401628   -1.1024926801
     H    -1.0762376019   -4.1788666360    0.7767794654
     H    -3.2837156264   -3.4785444601    1.1572074637
     H    -4.0286920114   -1.4557634381   -0.0944075760
     H    -3.6693992911   -1.0734681869    1.5944634473
     H    -4.1562764611    0.6279384130   -1.0997100873
     H     4.2530242694   -1.5860168706   -2.7466211910
     H     4.2197523377    0.9982654784   -3.0936252324
     H     1.0448479768    4.2709222713   -2.9843186448
     H    -1.5302187390    4.3306634499   -2.6048696077
     O     0.0140978002    0.0101228961    2.0874072216
     C    -0.0546240483   -0.0157538085    3.3649639982
     C     1.0725467804    0.3674681863    4.1515802000
     C     1.0121256835    0.3301264090    5.5335832267
     C    -0.1754777737   -0.0898613177    6.1552009025
     C    -1.3025000423   -0.4726591886    5.4099447227
     C    -1.2487255713   -0.4359571134    4.0283239938
     H     1.9714540072    0.6861746337    3.6346039106
     H     1.8730056162    0.6221972767    6.1295462189
     H    -0.2229499460   -0.1192199468    7.2394727942
     H    -2.2103387668   -0.7951813521    5.9136472919
     H    -2.0998734950   -0.7266428006    3.4205485626
     O     0.1195924899    0.0616526408   -1.6993739581
46
-3.1884503962111821e+03 frame 3   xyz file generated by TeraChem
    Mn     0.1006291318    0.0743508192   -0.0081169598
     C    -1.3067437704    3.0315589254   -1.0539582313
     P     0.1188859368    2.4015911771   -0.1256638531
     C     1.2561439861    2.9998631357   -1.3813061568
     C     2.7394360081    2.7006790920   -1.4103167955
     C     3.0049611278    1.2132091687   -1.4768506851
     P     2.3821073514    0.0483231738   -0.2464694578
     C     3.0230858535   -1.3786687086   -1.1696379877
     P     2.8143089047   -3.1773537934   -1.0174927875
     C     1.1933906798   -3.4009167454   -0.5109718741
     S     0.1138839512   -2.2560247256    0.2127290843
     C    -1.2730950208   -3.1492868748    0.8072708321
     C    -2.4951490662   -2.6420662841    1.0260373225
     C    -3.1901149155   -1.3174181091    0.8548868849
     S    -2.1935082882    0.0964064999    0.2336691670
     C    -3.3426673753    1.1729077443   -0.4852410388
     P    -3.0966191340    2.8136537658   -0.9287344496
     C     3.7500723709   -0.9243320346   -2.2472666806
     C     3.7161868725    0.5291663883   -2.4138533974
     C     0.5670552378    3.7574486848   -2.2888083478
     C    -0.8714537605    3.8115575442   -2.1120853053
     H     3.1914745636    3.1813929577   -2.2845055318
     H     3.2270742191    3.1262933592   -0.5228781823
     H     0.7287187741   -4.3693799816   -0.6823420406
     H    -1.0533986695   -4.1881238799    1.0416705058
     H    -3.1907176829   -3.3607602186    1.4573153427
     H    -4.0317750005   -1.4375293228    0.1646956682
     H    -3.6110371772   -0.9981240914    1.8144744444
     H    -4.3076534815    0.7168011789   -0.6945011856
     H     4.2728973904   -1.5727952405   -2.9486098682
     H     4.2150942562    1.0082952558   -3.2525376702
     H     1.0474050560    4.2716028095   -3.1173900825
     H    -1.5232491065    4.3718928905   -2.7812448374
     O     0.0644877572    0.0370729475    2.0653965970
     C    -0.0164059881   -0.0157785380    3.3305145411
     C     1.0481674228    0.3281093268    4.2331153984
     C     0.8447527507    0.2071511375    5.5956600467
     C    -0.3399437509   -0.2323039140    6.2127295854
     C    -1.3674573395   -0.5603640229    5.3124934056
     C    -1.2393804883   -0.4628768507    3.9408205486
     H     1.9823851764    0.6724455698    3.8007984225
     H     1.6683787167    0.4725098714    6.2510277068
     H    -0.4529449295   -0.3125557127    7.2913848943
     H    -2.3106795486   -0.9097428933    5.7225442114
     H    -2.0505221392   -0.7303857864    3.2717011933
     O     0.1462983062    0.0903002674   -1.6894858887
46
-3.1884615471470984e+03 frame 4   xyz file generated by TeraChem
    Mn     0.0560929456    0.1248886208   -0.0703781767
     C    -1.3159118823    2.9857452659   -1.4705376153
     P     0.0549425149    2.6174713649   -0.3762556024
     C     1.2484601593    3.0518819346   -1.6337807922
     C     2.7355178470    2.7441643621   -1.6006158186
     C     3.0260162573    1.2575981105   -1.6646764882
     P     2.4489882721    0.0554154557   -0.4742532467
     C     2.9964458618   -1.3559049672   -1.4189230657
     P     2.5834601163   -3.0834667813   -1.2721087827
     C     1.2638297717   -3.3844486317   -0.2901718660
     S     0.0940839261   -2.3857957403    0.4627948858
     C    -1.3516596872   -3.1779333958    1.0811498606
     C    -2.5469507865   -2.5772284811    1.2453483189
     C    -3.3003566630   -1.2879370683    1.0158285244
     S    -2.3998837721    0.1602628424    0.3112084224
     C    -3.4278228034    1.2543008392   -0.5110328899
     P    -3.0321034685    2.5418861287   -1.4977786750
     C     3.7958465539   -0.8947408467   -2.4634785477
     C     3.7859798507    0.5751879552   -2.5860971862
     C     0.5932662210    3.7727628221   -2.6214761980
     C    -0.8531877150    3.7747371958   -2.5446977428
     H     3.2156356330    3.2186831564   -2.4687227221
     H     3.2122841259    3.1902523854   -0.7169982510
     H     1.1671749074   -4.4211024867    0.0185662305
     H    -1.1942650407   -4.2094522417    1.3980007388
     H    -3.2406751145   -3.2531235374    1.7444512605
     H    -4.1443533273   -1.4729759726    0.3392610012
     H    -3.7526209488   -0.9555284767    1.9594752932
     H    -4.4826803448    1.1368922512   -0.2875165461
     H     4.3327274246   -1.5256702483   -3.1687523799
     H     4.3175042243    1.0576815486   -3.4021469785
     H     1.1058993537    4.2694647999   -3.4407977179
     H    -1.4797025762    4.2884428839   -3.2724161817
     O     0.0497807511    0.0673534888    2.2605410488
     C    -0.0415574689   -0.0388986481    3.5238841464
     C     1.0631718307    0.2839223704    4.4076386181
     C     0.9776468631    0.1282833101    5.7745499634
     C    -0.2338992946   -0.3604062972    6.2988999957
     C    -1.3626126427   -0.6932862493    5.5274279258
     C    -1.2517907629   -0.5221585423    4.1672910834
     H     1.9607220814    0.6512423941    3.9195406253
     H     1.8136270715    0.3678902820    6.4284736756
     H    -0.3042067331   -0.4907485316    7.3734123690
     H    -2.2745987541   -1.0701189178    5.9875624459
     H    -2.0666681959   -0.7674909174    3.5000410627
     O     0.1111693974    0.0898023127   -1.7010669507
46
-3.1884804714832244e+03 frame 5   xyz file generated by TeraChem
    Mn     0.0337501159    0.1275700517   -0.0555934655
     C    -1.3550910875    2.9485901392   -1.4190395426
     P     0.0176154515    2.5776466379   -0.3101821578
     C     1.2366848916    3.0415881285   -1.5588690326
     C     2.7229841736    2.7471447536   -1.4923594907
     C     3.0110657280    1.2598307000   -1.5627796376
     P     2.4025887180    0.0729319889   -0.3669726525
     C     2.9236877863   -1.3518721762   -1.3066768373
     P     2.5846833720   -3.1183470374   -1.2384896778
     C     1.2098377479   -3.4816841189   -0.3101199670
     S     0.0846306962   -2.3548918776    0.4149711518
     C    -1.4037113773   -3.1345973112    0.9584323726
     C    -2.6448491528   -2.6399607342    1.1338289667
     C    -3.3549093948   -1.3245264979    0.8934196323
     S    -2.4038737424    0.1300931305    0.2647117771
     C    -3.4571260349    1.2201988701   -0.5935129280
     P    -3.1063837757    2.5778964623   -1.5421926929
     C     3.7204608546   -0.8515244100   -2.3311448606
     C     3.7758494122    0.5944538977   -2.4878931025
     C     0.6191026263    3.7414178194   -2.5709248704
     C    -0.8132040713    3.6908852361   -2.4715454803
     H     3.2130123253    3.2323781837   -2.3472208332
     H     3.1770892543    3.1857904986   -0.5923835621
     H     1.0546493491   -4.5337718229   -0.0746406168
     H    -1.2421233644   -4.1700848736    1.2459402399
     H    -3.3375656887   -3.3530834682    1.5869992274
     H    -4.1664205963   -1.4980489583    0.1743567289
     H    -3.8390521749   -1.0182080789    1.8287068205
     H    -4.5186121244    1.0344464134   -0.4462805679
     H     4.2579254106   -1.4939246153   -3.0233639213
     H     4.3303703799    1.0701642695   -3.2942555228
     H     1.1397946250    4.2339974778   -3.3895096907
     H    -1.4340157852    4.1826350944   -3.2150300794
     O     0.0446165293    0.0852488318    2.2487913819
     C    -0.0271239273   -0.0103196904    3.5143086942
     C     1.1220152523    0.3475142308    4.3086631235
     C     1.0673512908    0.2071450796    5.6813847710
     C    -0.0704584123   -0.2711513484    6.3546464138
     C    -1.1824342611   -0.6063706831    5.5609722865
     C    -1.2109457717   -0.4924333517    4.1861965342
     H     2.0000494409    0.7128911054    3.7839494374
     H     1.9392029803    0.4729842817    6.2714039383
     H    -0.0898102542   -0.3773357190    7.4361149913
     H    -2.0694131622   -0.9785538630    6.0649679063
     H    -2.0695303508   -0.7637824804    3.5821914380
     O     0.0604019785    0.0668268530   -1.7033098344
46
-3.1884928227444602e+03 frame 6   xyz file generated by TeraChem
    Mn     0.0498139087    0.1554208348    0.0095622729
     C    -1.3465929005    2.9668793544   -1.3124860697
     P     0.0415280989    2.5306273523   -0.2045791290
     C     1.2463645947    2.9987548373   -1.4740436469
     C     2.7297790516    2.7288558264   -1.4104225204
     C     2.9819808744    1.2417533550   -1.4624659794
     P     2.3749766532    0.0861680616   -0.2402942337
     C     2.8998569220   -1.3362082379   -1.2498224040
     P     2.6581234978   -3.1316266391   -1.1874350301
     C     1.1714439528   -3.4024191194   -0.3627051269
     S     0.0825841530   -2.2572356569    0.4278052171
     C    -1.3892078218   -3.1164859164    0.8768746702
     C    -2.6379288116   -2.6577362266    1.0522056909
     C    -3.3273426581   -1.3232292333    0.8646134566
     S    -2.3376172900    0.1413485093    0.3452946672
     C    -3.4722789354    1.1950684219   -0.4971874149
     P    -3.1371075145    2.6803797250   -1.3015036431
     C     3.6617487206   -0.8553285712   -2.3044674889
     C     3.6925557253    0.5667868106   -2.4171076687
     C     0.5989584793    3.6064667561   -2.5075305508
     C    -0.8268842717    3.5992120832   -2.4256315149
     H     3.2098842653    3.1961700036   -2.2771488198
     H     3.1789735308    3.1782152568   -0.5133758636
     H     0.8498199672   -4.4430462405   -0.3201928112
     H    -1.2187664705   -4.1645323571    1.1000396497
     H    -3.3433235857   -3.3993078284    1.4326406408
     H    -4.1156899595   -1.4599759790    0.1133722762
     H    -3.8196668495   -1.0681706988    1.8092793174
     H    -4.5049520192    0.8426997670   -0.5193070151
     H     4.1947505030   -1.5013410028   -3.0000283573
     H     4.2342898479    1.0623639570   -3.2191370297
     H     1.1246447856    4.0320562862   -3.3587796161
     H    -1.4556265050    4.0360525057   -3.1986106173
     O     0.1048998545    0.1298933728    2.1875118892
     C     0.0722302808    0.0427278866    3.4561203515
     C     1.1844670761    0.3987550692    4.2870338886
     C     1.1155884751    0.2670056536    5.6605938146
     C    -0.0773854980   -0.2147290183    6.2291607994
     C    -1.2061359311   -0.5722990283    5.4686889739
     C    -1.1145422698   -0.4393550724    4.0968422398
     H     2.0789106663    0.7634414328    3.7946195046
     H     1.9625613363    0.5296574535    6.2883042602
     H    -0.1315531966   -0.3150400804    7.3085451558
     H    -2.1130718700   -0.9377047151    5.9435024112
     H    -1.9519936027   -0.6994984141    3.4568880903
     O    -0.0203013674    0.0563062383   -1.6545699987
46
-3.1885051136938155e+03 frame 7   xyz file generated by TeraChem
    Mn     0.0348543832    0.1702601586    0.0280218793
     C    -1.3450584092    2.9201716262   -1.3716612962
     P     0.0130349854    2.5651373541   -0.2002070141
     C     1.2395370425    2.9966311270   -1.4627402689
     C     2.7214401185    2.7427874714   -1.3447685165
     C     2.9771609317    1.2567215045   -1.4074791022
     P     2.3911914716    0.0890666406   -0.1800681289
     C     2.8648365461   -1.3085662836   -1.2346219607
     P     2.5758629726   -3.0808240110   -1.1568780721
     C     1.1250030757   -3.4033144402   -0.3144248468
     S     0.0659882979   -2.2760146472    0.5071277279
     C    -1.4241069372   -3.1415386871    0.8705034065
     C    -2.6666209700   -2.6545572740    1.0077390962
     C    -3.3779122529   -1.3321677775    0.8399675884
     S    -2.3906121066    0.1500111170    0.3915770154
     C    -3.4744329688    1.1883577545   -0.5045696515
     P    -3.1268104184    2.6198826424   -1.3686628809
     C     3.6311769750   -0.8259410199   -2.2916633363
     C     3.6770911551    0.5970520900   -2.3884000133
     C     0.6178255737    3.5461004947   -2.5483071177
     C    -0.8118978472    3.5146742119   -2.5021858200
     H     3.2210749277    3.2168550631   -2.1967719451
     H     3.1427850960    3.1904182713   -0.4349190373
     H     0.8023152094   -4.4427440815   -0.2731022989
     H    -1.2682614036   -4.1985967584    1.0703582394
     H    -3.3866921124   -3.4040481705    1.3373867688
     H    -4.1356388677   -1.4564426157    0.0570652653
     H    -3.9079769456   -1.1066770113    1.7717452159
     H    -4.5073239274    0.8433841404   -0.5248648986
     H     4.1553686859   -1.4733704761   -2.9927728894
     H     4.2148945541    1.1070158613   -3.1847128434
     H     1.1617609599    3.9430070320   -3.4029419485
     H    -1.4289336815    3.9062708810   -3.3092900048
     O     0.0964679757    0.1466559989    2.1825344028
     C     0.0621760112    0.0467226987    3.4517664288
     C     1.2094268352    0.4262335037    4.2236349043
     C     1.1955069277    0.3086379862    5.5999852483
     C     0.0428300070   -0.1757525084    6.2439882866
     C    -1.1000887284   -0.5481359990    5.5119475084
     C    -1.1006147193   -0.4452289828    4.1350195815
     H     2.0782544621    0.7922236154    3.6869821794
     H     2.0684727117    0.5888739716    6.1831833668
     H     0.0343363351   -0.2625594399    7.3262970743
     H    -1.9806106459   -0.9147787228    6.0328759120
     H    -1.9639275924   -0.7190204973    3.5372994034
     O    -0.0703879169    0.0349228273   -1.6103256941
46
-3.1885189346716111e+03 frame 8   xyz file generated by TeraChem
    Mn     0.0658626917    0.2153465267    0.0916166606
     C    -1.3211534666    2.7178365444   -1.4440450948
     P    -0.0229962384    2.6503920129   -0.1665819497
     C     1.2348675559    2.9592852514   -1.4453484061
     C     2.7154683938    2.7549713676   -1.2244570256
     C     2.9563590254    1.2683673875   -1.3504582711
     P     2.4859176007    0.0527694393   -0.0921636262
     C     2.6923798860   -1.2725217618   -1.2920897087
     P     2.3187261846   -2.9953032581   -1.2940728308
     C     1.0255273928   -3.3144585294   -0.2811343139
     S     0.1086001946   -2.3091569300    0.7852784988
     C    -1.4448818306   -3.1363636383    0.8901262983
     C    -2.6972691451   -2.6708189415    0.9911804524
     C    -3.4074295209   -1.3440163416    0.9111320544
     S    -2.4455153230    0.2022065202    0.6824821806
     C    -3.4010023603    1.1581095069   -0.3889990098
     P    -3.0887039452    2.4037551001   -1.4560400074
     C     3.3799215266   -0.7513903632   -2.3944272619
     C     3.5154091853    0.6610797341   -2.4582636770
     C     0.6705346667    3.3066690617   -2.6465339547
     C    -0.7581302115    3.1844112217   -2.6212606628
     H     3.2495107082    3.2597333974   -2.0401154805
     H     3.0845378595    3.1765349820   -0.2833742625
     H     0.6888263305   -4.3465973097   -0.2545362972
     H    -1.3064326648   -4.2149307194    0.9596084890
     H    -3.4352954930   -3.4567106635    1.1564378226
     H    -4.0885872391   -1.4025152712    0.0547095009
     H    -4.0246802015   -1.2176130986    1.8076465039
     H    -4.4442195573    0.8628959367   -0.3579639247
     H     3.7851988447   -1.4003999726   -3.1669175677
     H     3.9763183444    1.2029982373   -3.2815049387
     H     1.2361982238    3.6051424625   -3.5282546405
     H    -1.3603826879    3.4216651349   -3.4965847940
     O     0.2042301041    0.2438528492    2.1243855424
     C     0.1988866311    0.1467048825    3.4059380397
     C     1.3198203430    0.5642529391    4.1967694429
     C     1.2923158878    0.4568973116    5.5757841986
     C     0.1779549231   -0.0524094833    6.2627064931
     C    -0.9237504783   -0.4623688745    5.4925247520
     C    -0.9334890199   -0.3811138050    4.1138208257
     H     2.1816936118    0.9524052262    3.6635496217
     H     2.1569288634    0.7775232549    6.1508889517
     H     0.1664851825   -0.1239897275    7.3462110370
     H    -1.7980969912   -0.8530054718    6.0066507814
     H    -1.7888418952   -0.6865469722    3.5225693159
     O    -0.2448559636   -0.0757783595   -1.4362225129
46
-3.1885296977637513e+03 frame 9   xyz file generated by TeraChem
    Mn     0.0571459339    0.1732760505    0.1330778126
     C    -1.2909035954    2.6889916804   -1.3517308521
     P    -0.0550597227    2.6085848957   -0.0150610022
     C     1.2643156134    2.9426852515   -1.2236220085
     C     2.7382675845    2.7359066768   -0.9757179227
     C     2.9568128834    1.2561405066   -1.1673802018
     P     2.4825730117   -0.0285024682    0.0247676799
     C     2.6722227790   -1.2921532553   -1.2590776308
     P     2.2898568797   -3.0223773449   -1.3525613820
     C     0.9828040948   -3.3815984200   -0.3680250442
     S     0.0977214229   -2.3893945737    0.7634259835
     C    -1.4676402738   -3.2082004343    0.7042727534
     C    -2.7173253584   -2.7410378717    0.7633751120
     C    -3.4213664483   -1.4108381532    0.7443384040
     S    -2.4901438076    0.1773286518    0.7134924569
     C    -3.4407314549    1.1072649221   -0.4132575153
     P    -3.0576799398    2.3841279456   -1.4282815111
     C     3.3166075524   -0.7284427916   -2.3632638676
     C     3.4443964917    0.6835291302   -2.3198117937
     C     0.7320665472    3.2773885349   -2.4395526242
     C    -0.6929570615    3.1660972505   -2.5057415932
     H     3.3055803442    3.2841811715   -1.7403988246
     H     3.0691584801    3.0955262536    0.0039798600
     H     0.6343110942   -4.4123214446   -0.3983439186
     H    -1.3428068062   -4.2904388324    0.6991816367
     H    -3.4654938898   -3.5338785308    0.8147208558
     H    -4.0544520130   -1.4054723997   -0.1510003904
     H    -4.0892788540   -1.3656592925    1.6124354644
     H    -4.4911170850    0.8233575171   -0.4242275864
     H     3.6726414715   -1.3300243455   -3.1972227035
     H     3.8606037039    1.2692125547   -3.1346707381
     H     1.3363746645    3.5695813771   -3.2950085345
     H    -1.2525622416    3.4028211551   -3.4091528336
     O     0.1468185356    0.2114326068    2.0908048555
     C     0.1310445395    0.1455830996    3.3787514180
     C     1.2970062702    0.6355707485    4.0429410718
     C     1.3582034807    0.6224414513    5.4247634013
     C     0.2837276916    0.1339409511    6.1820655465
     C    -0.8593412755   -0.3542234880    5.5281796034
     C    -0.9610350914   -0.3666181294    4.1487205582
     H     2.1123650673    1.0066869488    3.4288579451
     H     2.2446002959    0.9986295440    5.9288824593
     H     0.3352640813    0.1359958636    7.2662606198
     H    -1.6872254181   -0.7257542300    6.1261466148
     H    -1.8414962823   -0.7252652323    3.6267565866
     O    -0.1911079963   -0.0862849623   -1.4264206916
46
-3.1885352045224759e+03 frame 10   xyz file generated by TeraChem
    Mn     0.0508863185    0.0863606761    0.1309545968
     C    -1.2729060263    2.7062884283   -1.2431341232
     P    -0.0855725227    2.5064902217    0.1134569031
     C     1.2871399041    2.9216977663   -1.0078112251
     C     2.7481507366    2.6770453395   -0.7023064654
     C     2.9667543817    1.2216872755   -1.0441294743
     P     2.4650426940   -0.1530246263    0.0393938157
     C     2.6973093389   -1.3329225307   -1.3172687043
     P     2.3231809797   -3.0881071607   -1.4807822753
     C     0.9973581442   -3.4813460034   -0.5118032150
     S     0.0913982934   -2.5128077196    0.6608279934
     C    -1.4881224053   -3.3150281207    0.5064543132
     C    -2.7248822951   -2.8141161512    0.5383499972
     C    -3.4206618058   -1.4814746267    0.5807166597
     S    -2.5170610920    0.1267529028    0.7329539081
     C    -3.4594747063    1.0873674047   -0.4115433775
     P    -3.0448186071    2.4255906134   -1.3626207143
     C     3.2913277448   -0.6814478563   -2.3950809755
     C     3.4180529661    0.7357516866   -2.2447104383
     C     0.8004269212    3.3380942059   -2.2200584320
     C    -0.6229845120    3.2449962071   -2.3456402555
     H     3.3723039665    3.3068941895   -1.3489605266
     H     3.0036201554    2.9058087483    0.3376145378
     H     0.6591826387   -4.5164921756   -0.5790925796
     H    -1.3858535773   -4.3965815975    0.4400785780
     H    -3.4883941901   -3.5928163708    0.4908229309
     H    -4.0202746484   -1.4053984251   -0.3335272431
     H    -4.1252568901   -1.5013700951    1.4212522541
     H    -4.5191672919    0.8272318130   -0.4355909775
     H     3.6077633387   -1.2057873132   -3.2945302316
     H     3.7945451777    1.3766670193   -3.0377127845
     H     1.4372806380    3.6662953348   -3.0371899989
     H    -1.1434400309    3.5412987406   -3.2536428949
     O     0.1132397778    0.1478175456    2.0357262093
     C     0.1493933522    0.1654133030    3.3372095150
     C     1.2710009019    0.6949096441    4.0366364152
     C     1.3278477709    0.7497857455    5.4201299135
     C     0.2438096908    0.2662834942    6.1621579434
     C    -0.8703529611   -0.2696550754    5.5020446027
     C    -0.9287744715   -0.3283770224    4.1158271088
     H     2.0915624612    1.0629936145    3.4296805583
     H     2.1981851196    1.1675391635    5.9201977092
     H     0.2655847280    0.3096212848    7.2465872672
     H    -1.7075824379   -0.6398592093    6.0875792235
     H    -1.7962874013   -0.7303829080    3.6025794408
     O    -0.0977150005   -0.0818910203   -1.4914274704
46
-3.1885364023948941e+03 frame 11   xyz file generated by TeraChem
    Mn     0.0194504261    0.0722082107    0.1555652530
     C    -1.2755843753    2.6548375916   -1.2898063921
     P    -0.1447542906    2.4899512826    0.1174698563
     C     1.2633174249    2.8959762748   -0.9620731868
     C     2.7040726756    2.6551260208   -0.5721855459
     C     2.9327879316    1.2110503282   -0.9515610593
     P     2.4386733877   -0.1952865813    0.1022489541
     C     2.6458200848   -1.3220551042   -1.3009136773
     P     2.2702349429   -3.0699525143   -1.4966433558
     C     0.9747869186   -3.4364058920   -0.4742792414
     S     0.0667095186   -2.5416508966    0.7594284694
     C    -1.5230270379   -3.3031144360    0.4920871004
     C    -2.7667650036   -2.8197059895    0.4679409523
     C    -3.4590933354   -1.4878898822    0.5235931066
     S    -2.5781985124    0.1241133383    0.7890764486
     C    -3.4557602618    1.0741684358   -0.4172245239
     P    -3.0439671353    2.3706377407   -1.4276276913
     C     3.2291334115   -0.6421912289   -2.3640894620
     C     3.3683381597    0.7688096459   -2.1731144704
     C     0.8282398916    3.2779136016   -2.2060189014
     C    -0.5879567593    3.1684197865   -2.3843895131
     H     3.3663702250    3.3091141501   -1.1517854772
     H     2.8874632034    2.8424405015    0.4902037234
     H     0.6344727619   -4.4691293898   -0.5514185135
     H    -1.4164133562   -4.3796411589    0.3794180600
     H    -3.5231928357   -3.5965545022    0.3356949618
     H    -4.0023788684   -1.3737298133   -0.4202008645
     H    -4.2138270304   -1.5420321031    1.3173379225
     H    -4.5166622750    0.8225689206   -0.4467911299
     H     3.5362994936   -1.1377292575   -3.2828570834
     H     3.7391531582    1.4322860626   -2.9507043262
     H     1.4969078217    3.5901122591   -3.0040833948
     H    -1.0766158183    3.4434903678   -3.3166738552
     O     0.1122037454    0.1543975908    2.0158680152
     C     0.1966015399    0.1987211561    3.3193778845
     C     1.3418400485    0.7655093442    3.9336999013
     C     1.3868829926    0.7965140680    5.3203365809
     C     0.3554380665    0.2976126993    6.1253557850
     C    -0.7757488594   -0.2635898312    5.5252056153
     C    -0.8406581399   -0.3083307548    4.1385834705
     H     2.1418308728    1.1488694889    3.3069206718
     H     2.2616856149    1.2286823908    5.7981071250
     H     0.4292424805    0.3471080491    7.2075494948
     H    -1.5900078040   -0.6550355597    6.1300430696
     H    -1.7122206884   -0.7322203116    3.6485287808
     O    -0.1723594292   -0.1265979376   -1.4645314059
