46
-3.1885390336555547e+03 frame 48   xyz file generated by TeraChem
    Mn    -0.6022661257    0.3181054856    0.4605815179
     C    -1.0371183536    3.3225577167   -0.8495741077
     P    -0.2008954603    2.5791484669    0.5728909271
     C     1.4205791983    3.0071258183   -0.1310408642
     C     2.7363900616    2.4348037947    0.3461985456
     C     2.8107716691    1.0349101700   -0.2172455978
     P     1.5878768276   -0.1922129443    0.2039648050
     C     2.1050329202   -1.3224583029   -1.1189199854
     P     1.3183093418   -2.7775014769   -1.8405041142
     C    -0.0786577162   -3.1596362764   -0.9614572310
     S    -0.7184559281   -2.5110520240    0.5395748348
     C    -2.4622053498   -2.9114637449    0.4967296757
     C    -3.4272750671   -2.1535696604   -0.0417067137
     C    -3.2796927240   -0.8963954987   -0.8386653583
     S    -3.0219501673    0.5975685944    0.2693620807
     C    -3.4849605888    1.8855519723   -0.8485673900
     P    -2.7281243133    3.2750500256   -1.4299567988
     C     3.2325655566   -0.7789872140   -1.6911935252
     C     3.6150898274    0.5373884817   -1.2061410193
     C     1.2588769057    3.8287513642   -1.2127526584
     C    -0.1098843546    4.0195073137   -1.6044253426
     H     3.5772956975    3.0367280358   -0.0184029356
     H     2.7948015949    2.4199750291    1.4414596409
     H    -0.6639047539   -3.9776658713   -1.3771492263
     H    -2.7301878196   -3.8014552494    1.0598004447
     H    -4.4500138558   -2.4909524395    0.1237763248
     H    -2.4070837122   -0.8998162106   -1.4936687522
     H    -4.1859431585   -0.6972311705   -1.4144036214
     H    -4.5162886801    1.7712659913   -1.1838927051
     H     3.7893452598   -1.2728964912   -2.4840745389
     H     4.4488249219    1.0866128546   -1.6368722837
     H     2.0880345237    4.2721725404   -1.7592658398
     H    -0.3849577592    4.6358604037   -2.4577886030
     O    -0.9817051807   -0.0684122624    2.2093353237
     C    -0.1544987155   -0.3747464177    3.2173335301
     C     0.9693217816    0.4187703756    3.5177349333
     C     1.8075172639    0.0736618968    4.5745459724
     C     1.5474727852   -1.0632765343    5.3430510890
     C     0.4270196605   -1.8478851270    5.0537365626
     C    -0.4239352123   -1.5067901225    4.0067868481
     H     1.1455448211    1.3143950250    2.9315995368
     H     2.6679578683    0.6979512836    4.8001823638
     H     2.2065029695   -1.3318947542    6.1631343467
     H     0.2149938428   -2.7311768733    5.6501033262
     H    -1.2988515342   -2.1039734513    3.7702758884
     O    -0.4685054060    0.0413722065   -1.1438213202
