46
-3.1881959046984657e+03 frame 0   xyz file generated by TeraChem
    Mn     0.0000000000    0.0000000000    0.0000000000
     C    -1.3007760000    2.8894320000   -0.9086620000
     P     0.0309210000    1.9927330000   -0.0127610000
     C     1.1276090000    2.8226380000   -1.2327940000
     C     2.6071740000    2.5901530000   -1.1990920000
     C     2.8351310000    1.1107830000   -1.2201110000
     P     2.0054220000    0.0275340000    0.0127610000
     C     2.8858700000   -1.3183180000   -0.8875300000
     P     2.7261690000   -3.0958710000   -0.4156760000
     C     1.0916950000   -3.2006620000   -0.7390780000
     S    -0.0179960000   -1.9988830000   -0.0127610000
     C    -1.3532810000   -3.1261130000    0.3969740000
     C    -2.6370320000   -2.7403910000    0.5424390000
     C    -3.2219830000   -1.3439330000    0.4028240000
     S    -2.0183480000   -0.0213840000    0.0127610000
     C    -3.1841260000    1.1125830000   -0.7472810000
     P    -3.0741630000    2.7465480000   -0.4296410000
     C     3.6262960000   -0.9027170000   -1.9085890000
     C     3.5952550000    0.4653130000   -2.1011610000
     C     0.4918890000    3.5886180000   -2.1149290000
     C    -0.8769090000    3.6293390000   -1.9272390000
     H     3.1298820000    3.1068590000   -2.0338610000
     H     2.9971260000    2.9840960000   -0.2377120000
     H     0.7353570000   -3.8831820000   -1.5027680000
     H    -1.1110210000   -4.1745130000    0.5444830000
     H    -3.3521950000   -3.5186850000    0.7925310000
     H    -3.9786700000   -1.4029870000   -0.4070470000
     H    -3.7224720000   -1.0776500000    1.3570800000
     H    -3.8567390000    0.7657850000   -1.5240700000
     H     4.1960190000   -1.5752020000   -2.5368390000
     H     4.1387360000    0.9620870000   -2.8945160000
     H     0.9961920000    4.1336320000   -2.9026130000
     H    -1.5429330000    4.2089790000   -2.5532210000
     O     0.0000000000    0.0000000000    2.1000000000
     C    -0.0006590000   -0.0009780000    3.4421470000
     C     1.1439690000    0.3960300000    4.1417030000
     C     1.1431120000    0.3956200000    5.5403790000
     C    -0.0020240000   -0.0020920000    6.2391670000
     C    -1.1462400000   -0.3992790000    5.5388990000
     C    -1.1461660000   -0.3991490000    4.1402610000
     H     2.0314610000    0.7044580000    3.6028760000
     H     2.0284100000    0.7028260000    6.0821700000
     H    -0.0024310000   -0.0023960000    7.3214050000
     H    -2.0319510000   -0.7068360000    6.0798050000
     H    -2.0328150000   -0.7070300000    3.5999530000
     O     0.0000000000    0.0000000000   -1.6500000000
46
-3.1883209774851866e+03 frame 1   xyz file generated by TeraChem
    Mn     0.0210598443    0.0124301563    0.0019178501
     C    -1.3463162372    2.9585243337   -0.8930127451
     P     0.0510332631    2.1284386944   -0.0189868998
     C     1.1850650613    2.8954353419   -1.2440183081
     C     2.6744962009    2.6495798398   -1.2376530445
     C     2.9067304647    1.1573577086   -1.2587002854
     P     2.1392315253    0.0273552148   -0.0221943203
     C     2.9462384146   -1.3800631657   -0.9111455629
     P     2.8189592260   -3.1847504722   -0.5355764415
     C     1.1182519802   -3.2832702181   -0.7121300114
     S     0.0086740375   -2.1013723589    0.0192361643
     C    -1.3441745725   -3.1574667479    0.4666963449
     C    -2.6081789869   -2.7376132326    0.6284614308
     C    -3.2313987113   -1.3629520787    0.4870903345
     S    -2.0961980969    0.0094945302    0.0502027312
     C    -3.2578050337    1.1355073455   -0.6940517964
     P    -3.1429926892    2.8350990010   -0.4955979954
     C     3.6707659848   -0.9421079820   -1.9648800502
     C     3.6435910947    0.4792749323   -2.1616500719
     C     0.5102307619    3.6527398903   -2.1352478518
     C    -0.9089811244    3.6967016189   -1.9399318369
     H     3.1705147078    3.1467053774   -2.0866108195
     H     3.0960533033    3.0608450946   -0.3031665363
     H     0.6886844818   -3.9822224657   -1.4251189736
     H    -1.1049810346   -4.2027483279    0.6279929243
     H    -3.3239222707   -3.5055450844    0.9137870499
     H    -4.0048231583   -1.4370777220   -0.2918650353
     H    -3.7091298850   -1.0936441253    1.4404973605
     H    -3.9545607772    0.7220657235   -1.4196816677
     H     4.2199618567   -1.6155479626   -2.6180966736
     H     4.1683985730    0.9691423227   -2.9766663923
     H     1.0052046942    4.1834161935   -2.9433651458
     H    -1.5772596806    4.2645493441   -2.5822832210
     O     0.0093546690    0.0030253582    2.1047439436
     C    -0.0062442606   -0.0061856564    3.4203106842
     C     1.1278031715    0.3809995197    4.1668307926
     C     1.0836392004    0.3609281957    5.5578834645
     C    -0.0773171758   -0.0408857738    6.2321979731
     C    -1.2047263330   -0.4261436820    5.4958384344
     C    -1.1738984651   -0.4102046544    4.1045430372
     H     2.0273438784    0.6926730568    3.6483184222
     H     1.9586122105    0.6599653870    6.1256851536
     H    -0.1029940368   -0.0534561090    7.3169344019
     H    -2.1070649424   -0.7384272075    6.0117789522
     H    -2.0475113439   -0.7086534727    3.5352029583
     O     0.0333452937    0.0258793237   -1.6938525973
46
-3.1884100380927666e+03 frame 2   xyz file generated by TeraChem
    Mn     0.0653125037    0.0338943740   -0.0001942622
     C    -1.3304401470    2.9977457499   -0.9153868120
     P     0.0911339898    2.2692063008   -0.0378560737
     C     1.2317516158    2.9656721503   -1.2671530182
     C     2.7161478557    2.6772514844   -1.2681726934
     C     2.9772976790    1.1886188838   -1.3378825163
     P     2.2829845064    0.0371854628   -0.1089856999
     C     2.9932643562   -1.3900639246   -1.0067844479
     P     2.8482066567   -3.2119876366   -0.8013433780
     C     1.1337306919   -3.3900824847   -0.6390143430
     S     0.0682726874   -2.1998837114    0.0798424681
     C    -1.3224676990   -3.1391957369    0.5912179911
     C    -2.5802693292   -2.7260297674    0.7999795961
     C    -3.2220162628   -1.3698737166    0.6410280933
     S    -2.1546936046    0.0343652636    0.1218633159
     C    -3.3212808133    1.1197729969   -0.6018533801
     P    -3.1417840385    2.8456215541   -0.7028248093
     C     3.7179627695   -0.9257716165   -2.0671581286
     C     3.7040529511    0.5174755131   -2.2651498895
     C     0.5635983168    3.7385918560   -2.1663141575
     C    -0.8703981201    3.7630344481   -1.9525837184
     H     3.1895204600    3.1713026102   -2.1217441737
     H     3.1690314264    3.0866974653   -0.3540609284
     H     0.6226168539   -4.2327715438   -1.1026639946
     H    -1.0763393955   -4.1788345854    0.7769651681
     H    -3.2838329293   -3.4785340764    1.1574295862
     H    -4.0287710076   -1.4557192391   -0.0941923690
     H    -3.6694274321   -1.0734077578    1.5946590908
     H    -4.1563495344    0.6278835100   -1.0994998467
     H     4.2532092607   -1.5859120261   -2.7466132630
     H     4.2198533037    0.9983831212   -3.0936372477
     H     1.0449300229    4.2710651410   -2.9844876682
     H    -1.5301191400    4.3305993372   -2.6048394541
     O     0.0140780163    0.0100746851    2.0873197114
     C    -0.0546454149   -0.0158124105    3.3648684244
     C     1.0725424939    0.3673945750    4.1514612028
     C     1.0121397916    0.3300422620    5.5334580209
     C    -0.1754976059   -0.0899585054    6.1549929382
     C    -1.3025690327   -0.4727554369    5.4098231617
     C    -1.2487469925   -0.4360180644    4.0282147127
     H     1.9714487077    0.6860966555    3.6344799861
     H     1.8730129612    0.6220950389    6.1294399684
     H    -0.2229636011   -0.1193308879    7.2392606854
     H    -2.2104029171   -0.7952792362    5.9135327758
     H    -2.0998891495   -0.7266931548    3.4204303768
     O     0.1195694093    0.0616403136   -1.6992051257
46
-3.1884502745979562e+03 frame 3   xyz file generated by TeraChem
    Mn     0.1007393637    0.0742972569   -0.0080284342
     C    -1.3066420061    3.0315599110   -1.0535921734
     P     0.1189691249    2.4017082821   -0.1252647447
     C     1.2561452265    2.9997655140   -1.3810490488
     C     2.7394470119    2.7006152940   -1.4103006045
     C     3.0050188070    1.2131693082   -1.4768396522
     P     2.3822795717    0.0482146262   -0.2464752204
     C     3.0230747656   -1.3788802706   -1.1695013553
     P     2.8144916026   -3.1776383795   -1.0176634197
     C     1.1935380033   -3.4011284877   -0.5110847248
     S     0.1140481606   -2.2562629297    0.2127200429
     C    -1.2729303689   -3.1494255560    0.8073354519
     C    -2.4949224174   -2.6421122042    1.0262243363
     C    -3.1899519346   -1.3174691501    0.8552596698
     S    -2.1935146705    0.0964459506    0.2339785003
     C    -3.3426694740    1.1729708178   -0.4848220550
     P    -3.0964615681    2.8136294737   -0.9284217897
     C     3.7499036349   -0.9244146687   -2.2471777172
     C     3.7161238701    0.5291094078   -2.4138870599
     C     0.5669246873    3.7574349443   -2.2883859569
     C    -0.8715570620    3.8117441975   -2.1117511740
     H     3.1913657729    3.1813114145   -2.2845557725
     H     3.2272067930    3.1262491299   -0.5229357573
     H     0.7288223500   -4.3695518980   -0.6825859830
     H    -1.0532488014   -4.1882820269    1.0416846510
     H    -3.1904743779   -3.3608053365    1.4575317784
     H    -4.0316913712   -1.4375423116    0.1651647926
     H    -3.6107812796   -0.9982336413    1.8149029037
     H    -4.3077003818    0.7169161221   -0.6939953845
     H     4.2725914969   -1.5728942870   -2.9486037194
     H     4.2149469351    1.0081610393   -3.2526646270
     H     1.0472566978    4.2717128951   -3.1168895934
     H    -1.5233529462    4.3722309074   -2.7808083962
     O     0.0645013425    0.0370809502    2.0648850270
     C    -0.0164610025   -0.0157173512    3.3299582875
     C     1.0480275949    0.3281672408    4.2326554495
     C     0.8444752517    0.2072895226    5.5951819235
     C    -0.3401637241   -0.2320800497    6.2123945942
     C    -1.3674445144   -0.5601022133    5.3118893150
     C    -1.2394822938   -0.4627680325    3.9401985063
     H     1.9822849724    0.6724560750    3.8003953271
     H     1.6680876274    0.4726831221    6.2505411658
     H    -0.4532551069   -0.3122788315    7.2910454859
     H    -2.3106982131   -0.9094473201    5.7218741717
     H    -2.0506052520   -0.7303245944    3.2710802204
     O     0.1465031553    0.0902311919   -1.6889516235
46
-3.1884613464512872e+03 frame 4   xyz file generated by TeraChem
    Mn     0.0525848341    0.1240478265   -0.0692211652
     C    -1.3179140668    2.9823256637   -1.4721921408
     P     0.0506633428    2.6157626030   -0.3744259018
     C     1.2467229179    3.0509106040   -1.6302174717
     C     2.7339047427    2.7440192220   -1.5933903586
     C     3.0249083591    1.2575222786   -1.6584962727
     P     2.4450713255    0.0544232777   -0.4699076535
     C     2.9934124393   -1.3565922630   -1.4144821118
     P     2.5808747325   -3.0848713013   -1.2702251006
     C     1.2618661109   -3.3853520471   -0.2871593488
     S     0.0913024596   -2.3856820474    0.4642990498
     C    -1.3558414341   -3.1779868191    1.0793132257
     C    -2.5525335804   -2.5797170163    1.2425419394
     C    -3.3049707871   -1.2899446295    1.0117398942
     S    -2.4030198195    0.1587188751    0.3098082425
     C    -3.4299939958    1.2526911917   -0.5144558766
     P    -3.0342258328    2.5383189791   -1.5038820452
     C     3.7952796737   -0.8938133399   -2.4562564253
     C     3.7874113215    0.5762431275   -2.5785832114
     C     0.5941362128    3.7725225011   -2.6190475626
     C    -0.8523624724    3.7721979883   -2.5443643842
     H     3.2162621939    3.2198740703   -2.4595198885
     H     3.2080332331    3.1890833035   -0.7077904569
     H     1.1684795782   -4.4210668099    0.0258414338
     H    -1.1983642434   -4.2095322268    1.3957866255
     H    -3.2465655782   -3.2565030999    1.7401445769
     H    -4.1472605630   -1.4750448637    0.3330458623
     H    -3.7594914116   -0.9582149504    1.9545085323
     H    -4.4846981747    1.1383945815   -0.2884626422
     H     4.3336605871   -1.5245401094   -3.1605287700
     H     4.3213287281    1.0591828718   -3.3928416569
     H     1.1083193110    4.2709173220   -3.4364231990
     H    -1.4779314387    4.2864667743   -3.2724359880
     O     0.0472537702    0.0672987947    2.2561302794
     C    -0.0427049480   -0.0384776221    3.5200392535
     C     1.0659995888    0.2859797464    4.3977846012
     C     0.9894072211    0.1331872749    5.7655159546
     C    -0.2222406727   -0.3556404451    6.2894160038
     C    -1.3570254314   -0.6913549771    5.5281205500
     C    -1.2507415940   -0.5214178362    4.1674735662
     H     1.9608924521    0.6528075147    3.9045353877
     H     1.8276569925    0.3736315116    6.4163961035
     H    -0.2880795579   -0.4848088418    7.3642296532
     H    -2.2663740492   -1.0678927434    5.9938902359
     H    -2.0678823086   -0.7677290491    3.5034572470
     O     0.1075546179    0.0874497879   -1.6990432636
46
-3.1884805325584744e+03 frame 5   xyz file generated by TeraChem
    Mn     0.0311534959    0.1270998506   -0.0546160552
     C    -1.3564132747    2.9467245454   -1.4187724280
     P     0.0146863526    2.5758124620   -0.3076365422
     C     1.2354338782    3.0406238136   -1.5551893783
     C     2.7216624781    2.7469350492   -1.4858659548
     C     3.0097998784    1.2597303172   -1.5574335202
     P     2.3990594951    0.0725188578   -0.3627798408
     C     2.9204425929   -1.3519236313   -1.3035323259
     P     2.5826613518   -3.1190014376   -1.2361291485
     C     1.2063930697   -3.4833245714   -0.3099489731
     S     0.0826259374   -2.3542493919    0.4145431874
     C    -1.4071717041   -3.1347700234    0.9526136429
     C    -2.6494816422   -2.6430947250    1.1270402384
     C    -3.3583250706   -1.3269739606    0.8873090789
     S    -2.4055493410    0.1287404578    0.2639736450
     C    -3.4593301525    1.2180412493   -0.5952037752
     P    -3.1081359347    2.5769465777   -1.5424575958
     C     3.7184536849   -0.8510123556   -2.3265182548
     C     3.7756261069    0.5950659434   -2.4819650740
     C     0.6195808071    3.7395131707   -2.5687518048
     C    -0.8127234074    3.6874302816   -2.4712217843
     H     3.2133085755    3.2332557317   -2.3391203580
     H     3.1735114026    3.1845312990   -0.5842357353
     H     1.0499680674   -4.5354745722   -0.0753626530
     H    -1.2454842907   -4.1707175351    1.2382345826
     H    -3.3426086885   -3.3577063860    1.5772243888
     H    -4.1678066618   -1.4993606585    0.1657029235
     H    -3.8446837809   -1.0227537304    1.8220883676
     H    -4.5208552893    1.0308287017   -0.4496436924
     H     4.2567577779   -1.4933702340   -3.0181398434
     H     4.3319239078    1.0713088708   -3.2867881974
     H     1.1414731414    4.2321257087   -3.3865777508
     H    -1.4328973120    4.1783149175   -3.2157957856
     O     0.0442751910    0.0862117468    2.2463950135
     C    -0.0247670515   -0.0081799152    3.5125873291
     C     1.1259924679    0.3507821761    4.3035179773
     C     1.0735937169    0.2115593620    5.6766588407
     C    -0.0610750618   -0.2658670660    6.3556615429
     C    -1.1732096439   -0.6014135189    5.5624485569
     C    -1.2067577183   -0.4897698430    4.1873802270
     H     2.0030353777    0.7157649156    3.7768456146
     H     1.9471306668    0.4784629482    6.2636816701
     H    -0.0779327823   -0.3707928174    7.4373780488
     H    -2.0591984876   -0.9731091678    6.0685130904
     H    -2.0672341343   -0.7620781548    3.5864424765
     O     0.0558568376    0.0644095795   -1.7018884714
46
-3.1884929918593207e+03 frame 6   xyz file generated by TeraChem
    Mn     0.0504284033    0.1550995905    0.0107606567
     C    -1.3464452338    2.9669667507   -1.3096457170
     P     0.0420059493    2.5295606723   -0.2024008262
     C     1.2462969370    2.9979662718   -1.4717199284
     C     2.7297580381    2.7283037866   -1.4086887582
     C     2.9815866990    1.2411861086   -1.4618029399
     P     2.3749026807    0.0854543285   -0.2394661042
     C     2.8992520664   -1.3363254367   -1.2504633848
     P     2.6588093156   -3.1315950597   -1.1868253172
     C     1.1707111119   -3.4013558357   -0.3648752318
     S     0.0835691409   -2.2569510983    0.4278579457
     C    -1.3879500919   -3.1179154622    0.8741991751
     C    -2.6360049306   -2.6574880536    1.0490929466
     C    -3.3259604452   -1.3231718906    0.8641092413
     S    -2.3357495105    0.1419355916    0.3482373017
     C    -3.4702819158    1.1954582637   -0.4937832156
     P    -3.1371459593    2.6825889296   -1.2951640540
     C     3.6600646711   -0.8561402097   -2.3060755375
     C     3.6905712869    0.5663396858   -2.4175212327
     C     0.5977862091    3.6041193011   -2.5054186306
     C    -0.8282741641    3.5979079720   -2.4243197196
     H     3.2096143272    3.1961518263   -2.2752644294
     H     3.1790450505    3.1768523080   -0.5113374716
     H     0.8456879514   -4.4410537470   -0.3267755042
     H    -1.2177226158   -4.1665239460    1.0954199901
     H    -3.3420157771   -3.3993522560    1.4274818208
     H    -4.1138729495   -1.4582345494    0.1121389577
     H    -3.8186514746   -1.0697576953    1.8090551076
     H    -4.5019363008    0.8405099928   -0.5189011538
     H     4.1926071297   -1.5019691737   -3.0022018950
     H     4.2317486811    1.0622229004   -3.2196884194
     H     1.1232813008    4.0285883256   -3.3572689887
     H    -1.4571710898    4.0340341712   -3.1976526822
     O     0.1066833225    0.1303921669    2.1857790118
     C     0.0754803109    0.0442353157    3.4544477389
     C     1.1860244862    0.4000749801    4.2876963946
     C     1.1121138065    0.2674954747    5.6610705036
     C    -0.0799355499   -0.2136064971    6.2321295637
     C    -1.2053299601   -0.5702618474    5.4663492144
     C    -1.1116334747   -0.4376238122    4.0944942354
     H     2.0818005095    0.7647370821    3.7976304285
     H     1.9583502371    0.5303768524    6.2895951574
     H    -0.1358207753   -0.3135994813    7.3115688530
     H    -2.1137175011   -0.9355689153    5.9384223216
     H    -1.9483521896   -0.6977936377    3.4534634178
     O    -0.0214429797    0.0555247713   -1.6530731395
46
-3.1885053403130814e+03 frame 7   xyz file generated by TeraChem
    Mn     0.0344092974    0.1703137393    0.0300916954
     C    -1.3453103192    2.9182081825   -1.3704869831
     P     0.0121881501    2.5656364070   -0.1981808585
     C     1.2394176455    2.9964596427   -1.4600896796
     C     2.7213408701    2.7431424676   -1.3408716308
     C     2.9769260433    1.2570608664   -1.4042184983
     P     2.3911412578    0.0887200660   -0.1771965547
     C     2.8631049281   -1.3083234478   -1.2324063406
     P     2.5742736902   -3.0803361401   -1.1564540994
     C     1.1241713524   -3.4028438544   -0.3133749860
     S     0.0662880841   -2.2763408038    0.5104544935
     C    -1.4247082005   -3.1418134543    0.8710866035
     C    -2.6671737568   -2.6545033850    1.0075132921
     C    -3.3784325990   -1.3321235177    0.8404503315
     S    -2.3911641387    0.1509251545    0.3945579885
     C    -3.4737248754    1.1885457794   -0.5037490054
     P    -3.1269096425    2.6184421171   -1.3699872268
     C     3.6296800645   -0.8251026442   -2.2891019245
     C     3.6763973170    0.5980089003   -2.3858850939
     C     0.6185262915    3.5442986351   -2.5470821087
     C    -0.8111799783    3.5120051626   -2.5011123463
     H     3.2216024336    3.2178000412   -2.1922709647
     H     3.1419349899    3.1902597735   -0.4304514302
     H     0.8017855354   -4.4423456600   -0.2720960245
     H    -1.2693568190   -4.1992206897    1.0696680304
     H    -3.3876429851   -3.4043619518    1.3354761105
     H    -4.1353033199   -1.4556441595    0.0565808789
     H    -3.9096903230   -1.1076512606    1.7718422764
     H    -4.5069084396    0.8445768941   -0.5231153857
     H     4.1537942025   -1.4723088807   -2.9904211244
     H     4.2143190093    1.1079361822   -3.1821452470
     H     1.1626661029    3.9405654266   -3.4018807107
     H    -1.4278418583    3.9027507494   -3.3088637032
     O     0.0959948856    0.1468290004    2.1788965572
     C     0.0617626918    0.0468524768    3.4479950219
     C     1.2097428194    0.4271073008    4.2185755353
     C     1.1983533766    0.3103324946    5.5949146299
     C     0.0452786069   -0.1746050345    6.2377773443
     C    -1.0991059777   -0.5482335184    5.5086234434
     C    -1.1006576226   -0.4456277177    4.1317787263
     H     2.0776950794    0.7931702614    3.6805676339
     H     2.0715657942    0.5909722886    6.1775870675
     H     0.0376810736   -0.2611712981    7.3200578394
     H    -1.9787176259   -0.9150936031    6.0309568208
     H    -1.9641461448   -0.7198879486    3.5344526393
     O    -0.0713024372    0.0344139968   -1.6077971532
46
-3.1885191796592635e+03 frame 8   xyz file generated by TeraChem
    Mn     0.0649546180    0.2152966982    0.0937205933
     C    -1.3193760065    2.7158913999   -1.4443672334
     P    -0.0231120574    2.6529906549   -0.1656009880
     C     1.2360903715    2.9599733287   -1.4436689047
     C     2.7165795260    2.7558379303   -1.2221022453
     C     2.9567152953    1.2692902966   -1.3479292172
     P     2.4870704442    0.0525182874   -0.0907213043
     C     2.6916804913   -1.2719535986   -1.2911124399
     P     2.3143094588   -2.9940171824   -1.2959764013
     C     1.0248978432   -3.3149026397   -0.2788400763
     S     0.1083610036   -2.3115331428    0.7906373730
     C    -1.4473192883   -3.1354733557    0.8943951986
     C    -2.7007878579   -2.6729505784    0.9951968959
     C    -3.4092509552   -1.3451811155    0.9142287860
     S    -2.4489654199    0.2029794266    0.6859075570
     C    -3.4044202576    1.1561403092   -0.3888349979
     P    -3.0857183879    2.3965831513   -1.4596509364
     C     3.3799681772   -0.7502096410   -2.3931501373
     C     3.5154574185    0.6620377301   -2.4560945676
     C     0.6731457678    3.3072777362   -2.6456673882
     C    -0.7552053602    3.1840983192   -2.6206815046
     H     3.2510034881    3.2603785432   -2.0376626238
     H     3.0857065801    3.1776521012   -0.2811478952
     H     0.6933102358   -4.3486740526   -0.2488543795
     H    -1.3091352965   -4.2139503323    0.9634104374
     H    -3.4385818421   -3.4594545109    1.1601386083
     H    -4.0900423387   -1.4038272212    0.0574709360
     H    -4.0273451745   -1.2190707787    1.8101470669
     H    -4.4493700756    0.8669734615   -0.3541057799
     H     3.7846483369   -1.3985829721   -3.1664675969
     H     3.9759161933    1.2040363709   -3.2795245543
     H     1.2393498404    3.6059920277   -3.5269979198
     H    -1.3568780590    3.4213043902   -3.4963376996
     O     0.2030636638    0.2439780246    2.1190833871
     C     0.1974579980    0.1469607440    3.4011488539
     C     1.3194580510    0.5651283237    4.1898537444
     C     1.2956189622    0.4586334849    5.5689307364
     C     0.1808141792   -0.0518149329    6.2541101035
     C    -0.9239474019   -0.4633579541    5.4893533043
     C    -0.9337323216   -0.3810553155    4.1107656726
     H     2.1799902673    0.9534619168    3.6546573441
     H     2.1606001203    0.7794693016    6.1434184020
     H     0.1712240715   -0.1234355976    7.3375037298
     H    -1.7968650608   -0.8545955881    6.0055164840
     H    -1.7892040938   -0.6870208005    3.5201766964
     O    -0.2453714571   -0.0760271254   -1.4336090155
46
-3.1885298403691577e+03 frame 9   xyz file generated by TeraChem
    Mn     0.0563606743    0.1715434966    0.1351003662
     C    -1.2906312691    2.6887150745   -1.3501798460
     P    -0.0555705197    2.6081081052   -0.0125564473
     C     1.2646760832    2.9417792797   -1.2201753486
     C     2.7386368079    2.7342216671   -0.9726644899
     C     2.9562863328    1.2545402330   -1.1660378267
     P     2.4827446948   -0.0313480243    0.0249545733
     C     2.6715409279   -1.2936908789   -1.2606745234
     P     2.2874370093   -3.0237932857   -1.3571220777
     C     0.9824570230   -3.3827373613   -0.3693264457
     S     0.0982379419   -2.3929045176    0.7655664255
     C    -1.4675165826   -3.2109843822    0.7048349991
     C    -2.7164886007   -2.7420821199    0.7637966833
     C    -3.4205269792   -1.4117415821    0.7460194997
     S    -2.4919394310    0.1784363782    0.7180817182
     C    -3.4420176814    1.1071524028   -0.4108707046
     P    -3.0572342115    2.3822396156   -1.4280245468
     C     3.3148395598   -0.7287945055   -2.3650713136
     C     3.4424544361    0.6827355765   -2.3194421679
     C     0.7324517776    3.2773687796   -2.4358044397
     C    -0.6923507026    3.1666969478   -2.5036990067
     H     3.3060622457    3.2828759761   -1.7369046220
     H     3.0699329054    3.0928336276    0.0072867330
     H     0.6350546701   -4.4139078350   -0.3997224955
     H    -1.3438837773   -4.2933132880    0.6989107387
     H    -3.4653447426   -3.5344020160    0.8140878776
     H    -4.0534682707   -1.4058456069   -0.1494571985
     H    -4.0887877958   -1.3679885038    1.6138880403
     H    -4.4927643202    0.8242528710   -0.4216235632
     H     3.6696025595   -1.3292142074   -3.2004203744
     H     3.8576156993    1.2692670720   -3.1342009811
     H     1.3373360802    3.5697414207   -3.2907543098
     H    -1.2513149792    3.4039504149   -3.4073636782
     O     0.1469847931    0.2117071033    2.0864910205
     C     0.1322214458    0.1478980868    3.3752573778
     C     1.2970725872    0.6382299682    4.0402777977
     C     1.3593488162    0.6262858741    5.4221744275
     C     0.2847555060    0.1375410522    6.1788210763
     C    -0.8578374961   -0.3510484601    5.5247803408
     C    -0.9594022954   -0.3639722085    4.1451950665
     H     2.1123887162    1.0093728013    3.4262047863
     H     2.2456278308    1.0029610261    5.9261277959
     H     0.3358076621    0.1398037979    7.2630030557
     H    -1.6856280402   -0.7228350539    6.1226649470
     H    -1.8397018988   -0.7234603626    3.6235894158
     O    -0.1927615349   -0.0883987185   -1.4243521090
46
-3.1885351871411758e+03 frame 10   xyz file generated by TeraChem
    Mn     0.0485403696    0.0859110756    0.1325421854
     C    -1.2751285195    2.7063354449   -1.2453702560
     P    -0.0876264913    2.5062374969    0.1111469393
     C     1.2852192401    2.9217231661   -1.0102324218
     C     2.7457811761    2.6769689680   -0.7023745793
     C     2.9653944907    1.2214013317   -1.0436109206
     P     2.4628902685   -0.1528471689    0.0406680450
     C     2.6968730104   -1.3335253958   -1.3142741425
     P     2.3223419697   -3.0885976782   -1.4768778014
     C     0.9969436041   -3.4821767001   -0.5073234396
     S     0.0905709611   -2.5128307299    0.6637746851
     C    -1.4891051315   -3.3153357801    0.5113867027
     C    -2.7251822378   -2.8119365375    0.5427726252
     C    -3.4223753738   -1.4798997714    0.5834297942
     S    -2.5189950279    0.1284166514    0.7331896803
     C    -3.4582407252    1.0895433685   -0.4127534032
     P    -3.0469468977    2.4257704588   -1.3681275923
     C     3.2924669338   -0.6817399629   -2.3910733636
     C     3.4198864359    0.7357844307   -2.2432517189
     C     0.7999518202    3.3389150642   -2.2229147697
     C    -0.6235478955    3.2444325676   -2.3473119578
     H     3.3705668117    3.3066372583   -1.3486020094
     H     3.0000937972    2.9063209596    0.3377167070
     H     0.6584545296   -4.5172009568   -0.5742952744
     H    -1.3879278447   -4.3971682698    0.4468734059
     H    -3.4891636570   -3.5901093542    0.4967059392
     H    -4.0220896175   -1.4053861971   -0.3308414776
     H    -4.1269770825   -1.4987322120    1.4240395377
     H    -4.5173631547    0.8279380730   -0.4379785391
     H     3.6107214082   -1.2069941063   -3.2892986959
     H     3.7983829020    1.3760713007   -3.0359259952
     H     1.4368755555    3.6676190476   -3.0398833320
     H    -1.1439327949    3.5405836239   -3.2553888936
     O     0.1122289160    0.1480086482    2.0334932175
     C     0.1494391635    0.1655013815    3.3352594857
     C     1.2728216491    0.6956693787    4.0304365576
     C     1.3309624795    0.7490765650    5.4139743808
     C     0.2482394063    0.2646663579    6.1573258947
     C    -0.8679949509   -0.2714760759    5.5011856301
     C    -0.9273144030   -0.3289191328    4.1149456360
     H     2.0922529030    1.0642520785    3.4221865010
     H     2.2019667049    1.1664947145    5.9131156821
     H     0.2726738539    0.3075206280    7.2417010381
     H    -1.7040130237   -0.6422393311    6.0881419779
     H    -1.7954353935   -0.7309750817    3.6026721640
     O    -0.1004164696   -0.0819136424   -1.4903074853
46
-3.1885365005212225e+03 frame 11   xyz file generated by TeraChem
    Mn     0.0180605823    0.0733310219    0.1562789401
     C    -1.2764689132    2.6554805993   -1.2937980473
     P    -0.1446849511    2.4920650009    0.1128267850
     C     1.2625972405    2.8970872227   -0.9681465171
     C     2.7036915758    2.6569903476   -0.5796111224
     C     2.9324289796    1.2118635675   -0.9545229919
     P     2.4380510658   -0.1923901444    0.1015694271
     C     2.6460789514   -1.3222518218   -1.2986694491
     P     2.2692040851   -3.0696759027   -1.4918936589
     C     0.9742005850   -3.4367869159   -0.4694785859
     S     0.0661083579   -2.5398870476    0.7617216222
     C    -1.5246438060   -3.3005756960    0.4985731975
     C    -2.7690064660   -2.8183647643    0.4746114018
     C    -3.4614807660   -1.4864134160    0.5277979270
     S    -2.5794663233    0.1257996857    0.7869320871
     C    -3.4571202834    1.0741426057   -0.4196495571
     P    -3.0440668720    2.3684193196   -1.4319253892
     C     3.2317149271   -0.6448860563   -2.3623325151
     C     3.3704220612    0.7665791059   -2.1742004534
     C     0.8264136647    3.2786375110   -2.2118376524
     C    -0.5898867681    3.1689315008   -2.3892461737
     H     3.3652050623    3.3092001864   -1.1621887789
     H     2.8886245051    2.8477302948    0.4818956018
     H     0.6340352307   -4.4695850871   -0.5454984798
     H    -1.4182822356   -4.3774125968    0.3885623902
     H    -3.5253503519   -3.5959141503    0.3459567104
     H    -4.0062199892   -1.3744493099   -0.4154177374
     H    -4.2150207374   -1.5387639158    1.3227745572
     H    -4.5177709062    0.8218169807   -0.4496612391
     H     3.5410711683   -1.1426063068   -3.2792182324
     H     3.7433348750    1.4282518644   -2.9523188020
     H     1.4943842801    3.5910410732   -3.0104225326
     H    -1.0793402485    3.4437135661   -3.3212626824
     O     0.1115199402    0.1557318930    2.0166865255
     C     0.1954582431    0.1985614747    3.3205210289
     C     1.3409404726    0.7645850339    3.9346164351
     C     1.3909499274    0.7952259600    5.3211261610
     C     0.3602583760    0.2951696919    6.1262026755
     C    -0.7710136258   -0.2647360347    5.5249744171
     C    -0.8417558743   -0.3099031159    4.1386231927
     H     2.1398519008    1.1483195486    3.3067709182
     H     2.2668928081    1.2267609112    5.7974363899
     H     0.4348908708    0.3427898133    7.2084418159
     H    -1.5840324134   -0.6567123722    6.1310332335
     H    -1.7142845171   -0.7334939140    3.6499076337
     O    -0.1737298321   -0.1256205993   -1.4638737971
