60
-1.3475310709010612e+03 frame 63   xyz file generated by TeraChem
    Mn     0.4273744101    0.0624216137   -0.0771882660
     C    -1.0729042988    2.2016143614    1.1446501468
     N     0.1530330223    1.7225550556    0.6953603121
     C     1.0676631973    2.7602454908    0.6925100007
     C     2.4607078436    2.5195201122    0.1916968793
     C     3.0074001534    1.1730867239    0.5666345932
     N     2.2501844342    0.0325734835    0.3579625784
     C     3.0067577975   -1.0770361665    0.6886250252
     C     2.6464307255   -2.5118121753    0.3878290580
     C     1.1738772450   -2.9241765509    0.2911788280
     N     0.3999027119   -2.1178391604   -0.6868302992
     C    -1.0433395614   -2.4631398977   -0.6834236785
     C    -1.9165012835   -1.3449624392   -1.2665901230
     N    -1.7549031929   -0.0189173689   -0.6150801341
     C    -2.6339613396    0.1475601706    0.5604790931
     C    -2.2537708345    1.3357857436    1.4931661327
     C    -2.0708097653    1.0488471514   -1.5902269342
     C     0.9606397849   -2.3217878926   -2.0399036115
     C     4.2417385493   -0.6321070772    1.1291492650
     C     4.2430516238    0.7957382517    1.0489100249
     C     0.4311299845    3.9057647234    1.1174416114
     C    -0.9273314236    3.5523102837    1.3986272000
     H     3.1263953171    3.3024926699    0.5686033329
     H     2.4680348559    2.6090345099   -0.9088217029
     H     3.0879685937   -3.1457869307    1.1666065674
     H     3.1486593238   -2.8173226307   -0.5416578545
     H     0.7011443121   -2.8223002192    1.2656648376
     H     1.1259316333   -3.9860650857   -0.0008862972
     H    -1.3449870095   -2.7012577636    0.3392401922
     H    -1.2182869426   -3.3780548295   -1.2696254770
     H    -2.9698822650   -1.6614714770   -1.2373703575
     H    -1.6536713126   -1.2113513683   -2.3171026630
     H    -2.6172555414   -0.7816410425    1.1325133586
     H    -3.6680189334    0.2630832107    0.2004207006
     H    -3.1192529364    2.0016538117    1.5742815663
     H    -2.0985616989    0.9206520288    2.4957544199
     H    -1.3797469350    0.9763241716   -2.4280478513
     H    -1.9301331996    2.0145156435   -1.1042894273
     H    -3.1092281171    0.9543638531   -1.9402353601
     H     1.9444994788   -1.8608668449   -2.0984521059
     H     0.3314095619   -1.8377842536   -2.7840269517
     H     1.0331541125   -3.3970010279   -2.2598434052
     H     5.0645577536   -1.2629722640    1.4437904871
     H     5.0578513795    1.4607707697    1.3062538157
     H     0.8799066570    4.8865407920    1.2113896783
     H    -1.6968273329    4.2040346551    1.7949912948
     N    -0.0982595948   -0.7335974246    1.5877975785
     H    -0.8217765143   -1.4395357744    1.5393245380
     C     0.1545132013   -0.4466996471    2.9105796488
     C    -0.6179965457   -1.0783664105    3.9174806517
     C    -0.4040813837   -0.8085147653    5.2623893689
     C     0.5915904070    0.0942771949    5.6478655236
     C     1.3678970937    0.7129704393    4.6640644942
     C     1.1632221758    0.4546807016    3.3144122735
     H    -1.3948844805   -1.7815847815    3.6196365605
     H    -1.0152355713   -1.3025417190    6.0130169633
     H     0.7613491902    0.3077332621    6.6989554802
     H     2.1508546418    1.4094664093    4.9508778966
     H     1.7813822994    0.9298882410    2.5685359768
     O     0.5746793601    0.2841496044   -1.6292367298
