50
terachem gradient in au, energy -4368.1224081087, grad_rms 0.063735, grad_max 0.199080 on atom 3
Co       0.0144953571       0.0261396559     -0.1036029215
 C       0.0564010304       0.0756591895      0.0075353111
 P      -0.0341369801      -0.1959828301      0.0076193501
 C      -0.0469192661       0.0761057689      0.0020229914
 S       0.0130105800       0.0151046131      0.0006313072
 C       0.0657328025      -0.0536763285      0.0132905366
 P      -0.1834936475      -0.0237045517      0.0123184705
 C       0.0689557553       0.0536001910      0.0110026924
 P       0.0035974297      -0.0079740895     -0.0103630214
 C      -0.0270927840       0.0113050356     -0.0162075326
 S      -0.0265552241       0.1259437334      0.0181727620
 C       0.0391847860       0.0192092358     -0.0107356446
 S      -0.0165385030      -0.0167978889      0.0003540777
 C       0.0136489730       0.0349776126      0.0059869368
 S       0.1747703173      -0.0094762716     -0.0054813638
 C       0.0110712423      -0.0362101755      0.0015703263
 P      -0.0050397145       0.0041488102     -0.0091983037
 C      -0.0096521766      -0.0240622214      0.0015111230
 C      -0.0030867772       0.0310018871     -0.0002530464
 C       0.0267798403      -0.0005845339      0.0038136275
 C      -0.0222615731      -0.0068869349      0.0043516756
 C      -0.0354532893       0.0153959565     -0.0078907766
 C      -0.0395187795      -0.0238460005     -0.0129263843
 C      -0.0185386141      -0.0433597086     -0.0094077135
 C       0.0095415511      -0.0408861161     -0.0041262318
 H       0.0018888757       0.0035476408      0.0070090890
 H      -0.0005897451       0.0027128510      0.0052886189
 H      -0.0019204722      -0.0042930946     -0.0002970658
 H      -0.0013426601       0.0048759290     -0.0011372840
 H       0.0045158247      -0.0009513281      0.0009572367
 H      -0.0034066952      -0.0004406750      0.0010343618
 H      -0.0028325069       0.0025575513      0.0013600434
 H      -0.0008897854      -0.0030226264     -0.0001904736
 H      -0.0032645503      -0.0013574494      0.0002976400
 H       0.0025374803      -0.0024600653      0.0017258387
 P      -0.0280066867      -0.0108985190     -0.0714806329
 C       0.0083380152      -0.0021888959      0.0046951080
 C       0.0035957327      -0.0019253419     -0.0066016407
 C      -0.0035264197      -0.0032859244     -0.0027438330
 C      -0.0021088593      -0.0002160194      0.0021906008
 C      -0.0040729503       0.0019167269      0.0066354744
 C       0.0074212587       0.0038890942     -0.0006675338
 H       0.0078536737       0.0073340418      0.0173783949
 H       0.0041947090       0.0024904785      0.0191739302
 H      -0.0015706705       0.0055508634      0.0091912049
 H       0.0009589140       0.0018700242      0.0010712250
 H       0.0013274352      -0.0006339731     -0.0019770498
 H      -0.0009959617      -0.0020316763     -0.0017094044
 H      -0.0026541280      -0.0035447234     -0.0001045905
 O      -0.0143521640      -0.0046389266      0.1089124943
