60
-1.3474373201512410e+03 frame 0   xyz file generated by TeraChem
    Mn     0.0000000000    0.0000000000    0.0000000000
     C    -1.1869000000    2.7986600000    0.2618500000
     N    -0.0866000000    2.0119900000    0.1515200000
     C     0.9729100000    2.8350800000    0.3031600000
     C     2.4263200000    2.4643500000    0.3545800000
     C     2.8265500000    1.0245700000    0.1967500000
     N     2.0224300000   -0.0541400000    0.0613000000
     C     2.8471800000   -1.1216700000   -0.0469500000
     C     2.4320500000   -2.5541300000   -0.1176600000
     C     1.0432300000   -2.8200900000    0.4831200000
     N    -0.0576900000   -2.0822500000   -0.1595200000
     C    -1.3399700000   -2.3144400000    0.5564700000
     C    -2.5063100000   -1.4736700000   -0.0035400000
     N    -2.1123800000   -0.0477700000   -0.2357000000
     C    -2.8537000000    0.8705100000    0.6534400000
     C    -2.6231300000    2.3629200000    0.3316600000
     C    -2.5540200000    0.3004100000   -1.6300200000
     C    -0.2355800000   -2.6471000000   -1.5348300000
     C     4.1669000000   -0.7226600000    0.0196200000
     C     4.1524400000    0.6389500000    0.1825500000
     C     0.5486100000    4.1414600000    0.4498500000
     C    -0.8213800000    4.1191200000    0.4133000000
     H     2.8231100000    2.8076600000    1.3366900000
     H     2.9353200000    3.0410900000   -0.4448900000
     H     3.1320400000   -3.1355900000    0.5232700000
     H     2.5806600000   -2.9378800000   -1.1458300000
     H     1.0501100000   -2.5845900000    1.5589500000
     H     0.8560900000   -3.9184100000    0.4348500000
     H    -1.2201600000   -2.0108300000    1.6126500000
     H    -1.6221400000   -3.3922700000    0.5780100000
     H    -3.4011500000   -1.5758200000    0.6486900000
     H    -2.8208400000   -1.9836400000   -0.9423100000
     H    -2.6503600000    0.6515400000    1.7049600000
     H    -3.9523100000    0.6983400000    0.5616300000
     H    -3.1226400000    2.6831200000   -0.6082100000
     H    -3.1335800000    2.9252400000    1.1423400000
     H    -2.2619400000   -0.4405400000   -2.3971300000
     H    -2.1197900000    1.2626900000   -1.9732700000
     H    -3.6631500000    0.3547700000   -1.7151600000
     H     0.6882600000   -2.5752800000   -2.1401900000
     H    -1.0085400000   -2.1481300000   -2.1298000000
     H    -0.5254000000   -3.7229100000   -1.4949000000
     H     5.0432900000   -1.3563300000   -0.0144100000
     H     5.0157300000    1.2836400000    0.2863100000
     H     1.1706900000    5.0137000000    0.6030000000
     H    -1.4824700000    4.9665700000    0.5415400000
     N     0.0000000000    0.0000000000    2.1900000000
     H    -0.8215800000    0.5204700000    2.4915500000
     C     0.8626500000   -0.3144900000    3.3018700000
     C     0.4077900000    0.0146500000    4.6004200000
     C     1.1802200000   -0.2546600000    5.7349200000
     C     2.4252100000   -0.8639600000    5.6025500000
     C     2.8974700000   -1.1951000000    4.3363000000
     C     2.1283400000   -0.9177500000    3.2026000000
     H    -0.5558900000    0.4881200000    4.7403600000
     H     0.8115000000    0.0085000000    6.7177300000
     H     3.0245800000   -1.0783900000    6.4780000000
     H     3.8650500000   -1.6696800000    4.2288200000
     H     2.5562100000   -1.1958400000    2.2870000000
     O     0.0000000000    0.0000000000   -1.6500000000
