25
terachem gradient in au, energy -406.3389552246, grad_rms 0.024466, grad_max 0.038224 on atom 10
Mo       0.0017447464       0.0087530347      0.0006618801
 N       0.0061841178      -0.0364904904     -0.0002135968
 H      -0.0189269421      -0.0058365757      0.0000128236
 H       0.0075278242      -0.0025711707      0.0169453789
 H       0.0076576989      -0.0023402927     -0.0169101506
 N      -0.0368571408       0.0006355176     -0.0001513654
 H      -0.0060560116       0.0205580689      0.0002750376
 H      -0.0062175781      -0.0106337646      0.0172245031
 H      -0.0061611075      -0.0100797605     -0.0175395795
 N      -0.0072691296       0.0375068312     -0.0012273240
 H       0.0185799079       0.0058054887      0.0017100974
 H      -0.0080491446       0.0026272978      0.0165582618
 H      -0.0056664251       0.0023508783     -0.0177015340
 N       0.0339777310      -0.0001470737      0.0001927542
 H       0.0054103445      -0.0206005626     -0.0005777856
 H       0.0069311379       0.0090482807      0.0165780484
 H       0.0068472313       0.0101891326     -0.0161235123
 N      -0.0005126545      -0.0067931382     -0.0356609558
 H      -0.0140390804       0.0097463130     -0.0052370067
 H       0.0004847315      -0.0190350222     -0.0009399815
 H       0.0141155379       0.0118934781     -0.0049103436
 N      -0.0000111094      -0.0072841751      0.0358228652
 H      -0.0141124741       0.0099331173      0.0050693532
 H       0.0141286132       0.0116540011      0.0049718624
 H       0.0002891751      -0.0188894117      0.0011702706
25
terachem gradient in au, energy -406.3861958094, grad_rms 0.010757, grad_max 0.017992 on atom 22
Mo       0.0000916924       0.0056536305      0.0004205401
 N       0.0056935556      -0.0158864538     -0.0001232230
 H      -0.0075483062      -0.0029320014      0.0000055441
 H       0.0016355518      -0.0017671608      0.0068716860
 H       0.0016530737      -0.0017611629     -0.0068019320
 N      -0.0164303419       0.0006286946     -0.0000584633
 H      -0.0031886616       0.0077883584      0.0001167912
 H      -0.0032755742      -0.0040953051      0.0065622316
 H      -0.0032422789      -0.0038575493     -0.0066877244
 N      -0.0062880247       0.0163827294     -0.0015157745
 H       0.0074890026       0.0029055082      0.0009156197
 H      -0.0018151484       0.0018371473      0.0068683739
 H      -0.0007550974       0.0018098419     -0.0067228831
 N       0.0159650342      -0.0014453208     -0.0000334481
 H       0.0030591643      -0.0076974046     -0.0002091324
 H       0.0033880652       0.0038853230      0.0066495222
 H       0.0033829752       0.0043585464     -0.0063846978
 N       0.0004509850      -0.0078964574     -0.0159238459
 H      -0.0054759076       0.0053000947     -0.0026117452
 H       0.0001256760      -0.0060765283     -0.0013319262
 H       0.0049403929       0.0059203019     -0.0025826143
 N       0.0003964164      -0.0082113301      0.0160042897
 H      -0.0054194897       0.0053052429      0.0025943464
 H       0.0050632691       0.0057954107      0.0025506154
 H       0.0001039770      -0.0059441539      0.0014278519
25
terachem gradient in au, energy -406.4021837938, grad_rms 0.002643, grad_max 0.005269 on atom 22
Mo       0.0004643126       0.0033500319      0.0002237850
 N       0.0024376760      -0.0036175238     -0.0000225704
 H      -0.0001462747      -0.0010948687      0.0000159415
 H      -0.0009276498      -0.0005485540      0.0001277488
 H      -0.0008756568      -0.0005080813     -0.0001752902
 N      -0.0047356678       0.0004114432     -0.0000559687
 H      -0.0010602168      -0.0001775385      0.0000317040
 H      -0.0010749993       0.0000416859     -0.0002118806
 H      -0.0010796540       0.0000774934      0.0002190526
 N      -0.0025860167       0.0039337829     -0.0005554429
 H       0.0001259022       0.0012162593      0.0002072475
 H       0.0009795455       0.0005848066      0.0003581865
 H       0.0010254771       0.0004790723     -0.0002299415
 N       0.0045498487      -0.0006432990      0.0000178723
 H       0.0009235125       0.0002249026     -0.0000281178
 H       0.0010410383      -0.0000739016     -0.0003881682
 H       0.0010213561      -0.0000158450      0.0004023388
 N      -0.0000333768      -0.0037339227     -0.0035822362
 H       0.0006167915       0.0007764913     -0.0010584461
 H      -0.0000495402       0.0003226865     -0.0000382426
 H      -0.0006301652       0.0009094299     -0.0010155528
 N       0.0000715233      -0.0038093156      0.0036393552
 H       0.0006129544       0.0007779226      0.0010200397
 H      -0.0006207741       0.0008463230      0.0010269072
 H      -0.0000499445       0.0002705183      0.0000716781
25
terachem gradient in au, energy -406.4037250107, grad_rms 0.001372, grad_max 0.002783 on atom 6
Mo       0.0002864442       0.0026102083      0.0001487105
 N       0.0005789051      -0.0015082377     -0.0000443384
 H      -0.0004802163      -0.0000207821     -0.0000075539
 H      -0.0000586186       0.0003797663      0.0003197981
 H      -0.0000702026       0.0003737640     -0.0003196433
 N      -0.0027737484       0.0002222726      0.0000080611
 H       0.0002526240       0.0003817709      0.0000419567
 H       0.0002512068      -0.0001858374      0.0002784717
 H       0.0002598023      -0.0001534591     -0.0002931608
 N      -0.0007597466       0.0016463947     -0.0003087353
 H       0.0004955729       0.0000976090      0.0001626531
 H       0.0001020586      -0.0002925777      0.0003431484
 H       0.0002431748      -0.0003706405     -0.0003372816
 N       0.0026635959      -0.0002964782     -0.0000110022
 H      -0.0002815916      -0.0004087793     -0.0000567684
 H      -0.0002750277       0.0001357048      0.0002809170
 H      -0.0002731403       0.0002016226     -0.0002495943
 N      -0.0000745547      -0.0022520751     -0.0014045021
 H      -0.0001952767       0.0004776815     -0.0000032363
 H       0.0000224892      -0.0000866591      0.0006345378
 H       0.0001411744       0.0005435714      0.0000171786
 N      -0.0000715595      -0.0023556521      0.0014223213
 H      -0.0001648883       0.0004569944     -0.0000205216
 H       0.0001778810       0.0005141798     -0.0000067833
 H       0.0000036416      -0.0001103644     -0.0005946347
25
terachem gradient in au, energy -406.4039247212, grad_rms 0.000751, grad_max 0.002374 on atom 1
Mo       0.0001828242       0.0023622836      0.0001482474
 N      -0.0000956802      -0.0001166744     -0.0000448800
 H      -0.0000448436      -0.0000295787     -0.0000018267
 H      -0.0001090922       0.0002478138     -0.0000919501
 H      -0.0001134534       0.0002353213      0.0000777575
 N      -0.0008405525       0.0001865178      0.0000012016
 H       0.0001859617      -0.0000278690      0.0000368247
 H       0.0002365019       0.0000632004     -0.0000601724
 H       0.0002486622       0.0000978715      0.0000709170
 N      -0.0000064494       0.0001696938     -0.0002121884
 H       0.0000644689       0.0000784446      0.0001140742
 H       0.0001251338      -0.0001806357     -0.0000776732
 H       0.0002403288      -0.0002464559      0.0000688662
 N       0.0007500522      -0.0002294432     -0.0000009455
 H      -0.0001537892       0.0000165075     -0.0000513187
 H      -0.0002526849      -0.0001193563     -0.0000595284
 H      -0.0002446271      -0.0000615204      0.0000622962
 N      -0.0000700781      -0.0016444395     -0.0000149881
 H       0.0000551171       0.0001298517     -0.0000257143
 H      -0.0000063498       0.0002246150      0.0003929627
 H      -0.0001110371       0.0001670207     -0.0000077710
 N      -0.0000396694      -0.0017670751      0.0000077919
 H       0.0000862531       0.0001149895      0.0000007679
 H      -0.0000780075       0.0001269098      0.0000196088
 H      -0.0000089902       0.0002020067     -0.0003523585
25
terachem gradient in au, energy -406.4041538604, grad_rms 0.000902, grad_max 0.002006 on atom 1
Mo       0.0000565916       0.0019962336      0.0001913054
 N      -0.0007091520       0.0013695530     -0.0000479318
 H       0.0001720086      -0.0001241595      0.0000052519
 H      -0.0000819338       0.0000182314     -0.0003216570
 H      -0.0000901920      -0.0000050056      0.0002904727
 N       0.0014882271      -0.0000200909     -0.0000234210
 H      -0.0000755657      -0.0001573454      0.0000443438
 H       0.0000980974       0.0002400922     -0.0002105713
 H       0.0001277306       0.0002749231      0.0002410286
 N       0.0007183417      -0.0014440187     -0.0001401439
 H      -0.0001602440       0.0001269092      0.0000944764
 H       0.0000535837       0.0000250941     -0.0003495162
 H       0.0001697814      -0.0000353153      0.0003054173
 N      -0.0015287337       0.0000601791      0.0000271126
 H       0.0001684710       0.0001511137     -0.0000643774
 H      -0.0001270938      -0.0003088605     -0.0002156417
 H      -0.0000983217      -0.0002508980      0.0001984871
 N      -0.0000216377      -0.0008824918      0.0012652698
 H       0.0001114808      -0.0001384279     -0.0000612021
 H      -0.0000695592       0.0003015479      0.0000009348
 H      -0.0001984530      -0.0001154982     -0.0000359239
 N       0.0000277720      -0.0010453677     -0.0013260063
 H       0.0001667890      -0.0001525413      0.0000363772
 H      -0.0001474173      -0.0001659174      0.0000499690
 H      -0.0000505697       0.0002820626      0.0000459475
25
terachem gradient in au, energy -406.4032141986, grad_rms 0.003128, grad_max 0.007532 on atom 6
Mo      -0.0003403256      -0.0001527286      0.0003555540
 N       0.0015208313       0.0051725219      0.0001456216
 H       0.0007769181      -0.0007163575     -0.0000361041
 H      -0.0002065737      -0.0007839231     -0.0007752939
 H      -0.0001879068      -0.0007462379      0.0006938461
 N       0.0070759446      -0.0025600328     -0.0003307801
 H      -0.0009118738      -0.0003733340      0.0000441414
 H      -0.0003486692       0.0007923973     -0.0005255214
 H      -0.0002921038       0.0008266323      0.0006250059
 N      -0.0007494212      -0.0056210791     -0.0000298815
 H      -0.0008214774       0.0005010482     -0.0000554788
 H       0.0000062191       0.0007150505     -0.0009060604
 H       0.0000185227       0.0006627136      0.0007791829
 N      -0.0069118183       0.0029100192      0.0002901794
 H       0.0010803761       0.0003562039     -0.0000505482
 H       0.0002951056      -0.0009127044     -0.0005518986
 H       0.0003635442      -0.0008652147      0.0004505197
 N       0.0004079241       0.0015937847      0.0044912272
 H       0.0002447176      -0.0008885117     -0.0001586622
 H      -0.0003528307       0.0005637645     -0.0012909392
 H      -0.0005487105      -0.0008484092     -0.0002005200
 N       0.0001826587       0.0017157335     -0.0047146223
 H       0.0003528793      -0.0009375636      0.0001689090
 H      -0.0004415971      -0.0009480021      0.0001944657
 H      -0.0002123336       0.0005442304      0.0013876579
25
terachem gradient in au, energy -406.4042613676, grad_rms 0.001943, grad_max 0.004818 on atom 14
Mo      -0.0000925085       0.0011695402      0.0002983022
 N       0.0002919607       0.0032761125      0.0000301411
 H       0.0004610472      -0.0005024941     -0.0000021482
 H      -0.0001500246      -0.0004036665     -0.0005376341
 H      -0.0001713414      -0.0004107274      0.0004736395
 N       0.0046028501      -0.0013214028     -0.0001929920
 H      -0.0006092632      -0.0002571113      0.0000601357
 H      -0.0001804150       0.0004919315     -0.0003559894
 H      -0.0001254414       0.0005266069      0.0004249009
 N      -0.0000205151      -0.0035566948     -0.0001421428
 H      -0.0004708068       0.0003983583      0.0000631951
 H       0.0000670240       0.0003921074     -0.0005913044
 H       0.0001397666       0.0003324132      0.0005200493
 N      -0.0045554076       0.0015588385      0.0001878724
 H       0.0007513141       0.0002527739     -0.0000798082
 H       0.0001253772      -0.0005867047     -0.0003798506
 H       0.0001860967      -0.0005273731      0.0003215000
 N       0.0001206531       0.0001890233      0.0026762545
 H       0.0001908941      -0.0004276108     -0.0001228566
 H      -0.0002067118       0.0003415603     -0.0006387503
 H      -0.0003556430      -0.0004224452     -0.0001043305
 N       0.0001417089       0.0000923788     -0.0028475273
 H       0.0002814907      -0.0004484742      0.0001040074
 H      -0.0002755045      -0.0004905787      0.0001176508
 H      -0.0001466019       0.0003336394      0.0007176848
25
terachem gradient in au, energy -406.4044857778, grad_rms 0.001144, grad_max 0.002826 on atom 6
Mo      -0.0000153237       0.0016586321      0.0002575933
 N      -0.0002649262       0.0016962203     -0.0000091965
 H       0.0001705968      -0.0002460985     -0.0000057645
 H      -0.0000793352      -0.0002152132     -0.0002236126
 H      -0.0001251447      -0.0002399421      0.0001650161
 N       0.0027704750      -0.0005541426     -0.0000663731
 H      -0.0004266825      -0.0000970379      0.0000605709
 H      -0.0001386028       0.0002760666     -0.0001427604
 H      -0.0000797832       0.0003014031      0.0001903671
 N       0.0003901497      -0.0018965178     -0.0001924031
 H      -0.0001801625       0.0002179489      0.0001129568
 H       0.0000292788       0.0002122486     -0.0002514512
 H       0.0001362301       0.0001680253      0.0002213147
 N      -0.0027211126       0.0006692139      0.0000690379
 H       0.0005156520       0.0000884521     -0.0000834420
 H       0.0000703287      -0.0003429105     -0.0001670108
 H       0.0001342153      -0.0002847514      0.0001349538
 N      -0.0000060610      -0.0003586506      0.0014733765
 H       0.0000741204      -0.0001715579     -0.0001230087
 H      -0.0001011161       0.0001589491     -0.0003594777
 H      -0.0001760286      -0.0002284235     -0.0000594812
 N       0.0000433320      -0.0004937301     -0.0015904267
 H       0.0001493020      -0.0001892297      0.0000896494
 H      -0.0001054865      -0.0002749288      0.0000791873
 H      -0.0000639166       0.0001459748      0.0004203872
25
terachem gradient in au, energy -406.4046559504, grad_rms 0.000632, grad_max 0.001772 on atom 1
Mo       0.0000497546       0.0017546352      0.0002429875
 N      -0.0001198412       0.0004500215     -0.0000227767
 H      -0.0000056125      -0.0000939855     -0.0000018559
 H      -0.0000344807      -0.0001386884     -0.0000014459
 H      -0.0001046142      -0.0001671246     -0.0000650826
 N       0.0014163978      -0.0002933553     -0.0000004215
 H      -0.0003634089       0.0000352380      0.0000664325
 H      -0.0001767635       0.0001375090      0.0000235459
 H      -0.0001134475       0.0001546926      0.0000251179
 N       0.0001689942      -0.0006592143     -0.0002119562
 H      -0.0000033611       0.0001017857      0.0001212804
 H       0.0000047921       0.0001215115     -0.0000155328
 H       0.0001153800       0.0000895940      0.0000062749
 N      -0.0013394770       0.0003614637      0.0000009508
 H       0.0003953787      -0.0000455042     -0.0000899683
 H       0.0000948871      -0.0001845185     -0.0000145827
 H       0.0001634415      -0.0001249534     -0.0000129892
 N      -0.0000636940      -0.0005000081      0.0005167856
 H      -0.0000173889      -0.0000407806     -0.0001195581
 H      -0.0000676873       0.0000173550     -0.0002611295
 H      -0.0000439944      -0.0001398642     -0.0000127782
 N      -0.0000329731      -0.0005827589     -0.0006007631
 H       0.0000659735      -0.0000654667      0.0000768995
 H       0.0000376051      -0.0001807935      0.0000422734
 H      -0.0000258613      -0.0000067919      0.0003082933
25
terachem gradient in au, energy -406.4047637593, grad_rms 0.000383, grad_max 0.001408 on atom 1
Mo       0.0001501702       0.0013880568      0.0001840421
 N       0.0001124183      -0.0006490797     -0.0000304343
 H      -0.0000699255       0.0000762788      0.0000192143
 H       0.0000449077      -0.0000271019      0.0001181469
 H      -0.0000535230      -0.0000592037     -0.0001818650
 N      -0.0001244930      -0.0001845472     -0.0000111556
 H      -0.0001858629       0.0000977351      0.0000721034
 H      -0.0001394272       0.0000041890      0.0001293747
 H      -0.0000869736       0.0000242461     -0.0000495967
 N      -0.0001687173       0.0004792524     -0.0001600936
 H       0.0000673424      -0.0000344853      0.0000781922
 H      -0.0000372166       0.0000034363      0.0001028854
 H       0.0000468376      -0.0000228512     -0.0001299139
 N       0.0001930329       0.0002040019     -0.0000004688
 H       0.0001584856      -0.0000969373     -0.0000962954
 H       0.0000752046      -0.0000430012      0.0000528913
 H       0.0001274354       0.0000253795     -0.0001043835
 N      -0.0000361272      -0.0003728956     -0.0002777177
 H      -0.0000850803      -0.0000000659     -0.0000567536
 H      -0.0000831587      -0.0000861922     -0.0001333073
 H       0.0000595975      -0.0001044515      0.0000606993
 N      -0.0000900850      -0.0003129453      0.0002771664
 H      -0.0000109942      -0.0000270273      0.0000141754
 H       0.0001457461      -0.0001613244     -0.0000348936
 H      -0.0000095927      -0.0001204667      0.0001579882
25
terachem gradient in au, energy -406.4047929178, grad_rms 0.000353, grad_max 0.001156 on atom 1
Mo       0.0001470044       0.0011378602      0.0001449790
 N       0.0000045260      -0.0006369696     -0.0000327393
 H      -0.0000395983       0.0001060260      0.0000394286
 H       0.0000863269       0.0000256607      0.0000644125
 H      -0.0000056843      -0.0000021784     -0.0001224947
 N      -0.0004765190      -0.0000968831     -0.0000177490
 H      -0.0000289060       0.0000603025      0.0000631535
 H      -0.0000501504      -0.0000235145      0.0001011830
 H       0.0000005357      -0.0000076862     -0.0000366581
 N      -0.0000912869       0.0005271050     -0.0001053661
 H       0.0000486673      -0.0000701455      0.0000411356
 H      -0.0000714436      -0.0000413580      0.0000513229
 H       0.0000110289      -0.0000650213     -0.0000965197
 N       0.0005059948       0.0001037942     -0.0000047655
 H      -0.0000023175      -0.0000550588     -0.0000862066
 H      -0.0000011470      -0.0000064368      0.0000460195
 H       0.0000438128       0.0000594450     -0.0000792036
 N       0.0000079509      -0.0003053218     -0.0002822728
 H      -0.0000754781      -0.0000087108     -0.0000111367
 H      -0.0000892984      -0.0000749133     -0.0000561032
 H       0.0000561107      -0.0000961328      0.0000815492
 N      -0.0000917280      -0.0002511182      0.0003296443
 H      -0.0000158953      -0.0000253757     -0.0000418755
 H       0.0001366052      -0.0001514588     -0.0000567959
 H      -0.0000091111      -0.0001019085      0.0000670594
25
terachem gradient in au, energy -406.4048457171, grad_rms 0.000324, grad_max 0.000957 on atom 6
Mo       0.0000011456       0.0003209517      0.0000444961
 N      -0.0001969970      -0.0001590993     -0.0000306750
 H       0.0000639960       0.0000898243      0.0000849943
 H       0.0001660377       0.0000996292     -0.0000992410
 H       0.0000845677       0.0001035418      0.0000589642
 N      -0.0008964742       0.0003220350     -0.0000969948
 H       0.0003367047      -0.0000726504      0.0000240234
 H       0.0001502099      -0.0000909473      0.0000070003
 H       0.0002026480      -0.0000880665      0.0000052973
 N       0.0001237820       0.0001968689      0.0000410029
 H      -0.0000382508      -0.0000963435     -0.0000410381
 H      -0.0001192436      -0.0000966919     -0.0001113123
 H      -0.0000573318      -0.0000930620      0.0000262275
 N       0.0007886825      -0.0003067800      0.0000509351
 H      -0.0003505797       0.0000890840     -0.0000423822
 H      -0.0001641456       0.0000779036      0.0000114152
 H      -0.0001259438       0.0001332203      0.0000167230
 N       0.0002179525      -0.0001377028     -0.0000400398
 H      -0.0000108962      -0.0000467904      0.0000583582
 H      -0.0001251066       0.0000070956      0.0001136378
 H       0.0000101309      -0.0000193578      0.0000602510
 N      -0.0000396975      -0.0002003167      0.0001643218
 H      -0.0000051190      -0.0000166291     -0.0001273191
 H       0.0000408275      -0.0000343091     -0.0000506576
 H      -0.0000568986       0.0000185913     -0.0001279878
25
terachem gradient in au, energy -406.4048570468, grad_rms 0.000222, grad_max 0.000573 on atom 6
Mo      -0.0000260264       0.0003610289      0.0000652841
 N      -0.0002143832      -0.0000190322     -0.0000348904
 H       0.0000554226       0.0000604918      0.0000778261
 H       0.0001243313       0.0000433017     -0.0000788330
 H       0.0000385368       0.0000586820      0.0000280073
 N      -0.0005024443       0.0002627472     -0.0000837921
 H       0.0002410630      -0.0000617325      0.0000144186
 H       0.0000814430      -0.0000705452     -0.0000255765
 H       0.0001368432      -0.0000701429      0.0000217013
 N       0.0001805891       0.0000451554      0.0000245304
 H      -0.0000390975      -0.0000575630     -0.0000231960
 H      -0.0000867094      -0.0000537230     -0.0000761710
 H      -0.0000293893      -0.0000360956      0.0000135557
 N       0.0004212582      -0.0002523614      0.0000434616
 H      -0.0002507735       0.0000726705     -0.0000338925
 H      -0.0001058674       0.0000599035     -0.0000044129
 H      -0.0000617005       0.0001129891      0.0000452332
 N       0.0001148057      -0.0002214196      0.0000335783
 H       0.0000095123       0.0000028559      0.0000279178
 H      -0.0000703586       0.0000162072      0.0000739813
 H      -0.0000009361      -0.0000212300      0.0000336944
 N       0.0000040051      -0.0002841487      0.0000317975
 H       0.0000071235       0.0000294659     -0.0000776167
 H       0.0000032819      -0.0000165936     -0.0000176896
 H      -0.0000305303       0.0000390902     -0.0000789163
25
terachem gradient in au, energy -406.4048689394, grad_rms 0.000157, grad_max 0.000345 on atom 22
Mo      -0.0001068544       0.0003150457      0.0000674017
 N      -0.0000267261       0.0001482693     -0.0000148478
 H       0.0000135196       0.0000001627      0.0000543616
 H       0.0000499492      -0.0000593598     -0.0000264447
 H      -0.0000595091      -0.0000343416     -0.0000243393
 N       0.0001531984       0.0002481748     -0.0000067885
 H       0.0000235257      -0.0000340588      0.0000002323
 H      -0.0000535864      -0.0000405877     -0.0000253586
 H      -0.0000207820      -0.0000491269      0.0000015039
 N       0.0000790123      -0.0001572668     -0.0000274046
 H      -0.0000149921       0.0000066751      0.0000198183
 H      -0.0000093115       0.0000352292     -0.0000232780
 H       0.0000187851       0.0000675006     -0.0000116929
 N      -0.0001763601      -0.0002210219     -0.0000089951
 H      -0.0000239274       0.0000396080     -0.0000234072
 H       0.0000326069       0.0000322304      0.0000077301
 H       0.0000669328       0.0000735654      0.0000480465
 N       0.0000454837      -0.0002734819      0.0001203557
 H       0.0000325452       0.0000580876     -0.0000336564
 H      -0.0000114362       0.0000320569     -0.0000196170
 H      -0.0000047571      -0.0000028001     -0.0000275916
 N       0.0000075497      -0.0003220212     -0.0001226953
 H       0.0000232833       0.0000531869      0.0000372150
 H      -0.0000161778       0.0000438796      0.0000417555
 H      -0.0000219722       0.0000403931     -0.0000023055
25
terachem gradient in au, energy -406.4048704871, grad_rms 0.000157, grad_max 0.000374 on atom 6
Mo      -0.0001062399       0.0002587521      0.0000669231
 N      -0.0000078358       0.0001070095     -0.0000117941
 H       0.0000033199      -0.0000098750      0.0000550469
 H       0.0000223511      -0.0000749081     -0.0000012900
 H      -0.0000787709      -0.0000498990     -0.0000511632
 N       0.0003609920       0.0000986217     -0.0000099819
 H      -0.0000631580      -0.0000095760     -0.0000093510
 H      -0.0000885148      -0.0000177927     -0.0000263192
 H      -0.0000930442      -0.0000129108      0.0000140356
 N       0.0000585428      -0.0001327706     -0.0000308952
 H      -0.0000091134       0.0000240134      0.0000211337
 H       0.0000028753       0.0000476218      0.0000090666
 H       0.0000353444       0.0000788888     -0.0000332390
 N      -0.0003411144      -0.0000791583      0.0000040592
 H       0.0000601684       0.0000092757     -0.0000168100
 H       0.0000905365      -0.0000061641     -0.0000030540
 H       0.0000934916       0.0000457027      0.0000429752
 N      -0.0000315665      -0.0002035658      0.0000795814
 H       0.0000424556       0.0000659435     -0.0000343121
 H       0.0000189123       0.0000091098     -0.0000427428
 H       0.0000142919      -0.0000116967     -0.0000390726
 N       0.0000273227      -0.0002668848     -0.0001020292
 H       0.0000109181       0.0000666375      0.0000630709
 H      -0.0000240911       0.0000340309      0.0000421855
 H       0.0000019256       0.0000295926      0.0000139759
25
terachem gradient in au, energy -406.4048767510, grad_rms 0.000138, grad_max 0.000415 on atom 6
Mo      -0.0000814905       0.0001201232      0.0000479438
 N       0.0000476429      -0.0000043628     -0.0000034928
 H      -0.0000165647      -0.0000146545      0.0000525939
 H       0.0000046250      -0.0000495096      0.0000000123
 H      -0.0000788516      -0.0000341350     -0.0000450655
 N       0.0004068395      -0.0000614523      0.0000534048
 H      -0.0001382265       0.0000197392     -0.0000285868
 H      -0.0000714012       0.0000210708     -0.0000145983
 H      -0.0001313744       0.0000301871     -0.0000093865
 N      -0.0000347312      -0.0000376223     -0.0000226479
 H       0.0000135995       0.0000227765      0.0000206464
 H       0.0000104793       0.0000348204      0.0000063411
 H       0.0000465072       0.0000483753     -0.0000317310
 N      -0.0003390691       0.0000813580     -0.0000368364
 H       0.0001377694      -0.0000241346     -0.0000029863
 H       0.0001084169      -0.0000576667      0.0000199774
 H       0.0000646373      -0.0000076884      0.0000227444
 N      -0.0000961648      -0.0000131242     -0.0000280762
 H       0.0000397963       0.0000303995      0.0000077798
 H       0.0000298340      -0.0000212107     -0.0000498555
 H       0.0000419541      -0.0000314924     -0.0000331912
 N       0.0000610194      -0.0001169742     -0.0000030518
 H      -0.0000104846       0.0000345213      0.0000586464
 H      -0.0000165300       0.0000224745      0.0000094661
 H       0.0000017694       0.0000081811      0.0000099486
25
terachem gradient in au, energy -406.4048798743, grad_rms 0.000102, grad_max 0.000285 on atom 6
Mo      -0.0000409623       0.0000213308      0.0000270609
 N       0.0000042387      -0.0000855055      0.0000195679
 H      -0.0000145308      -0.0000059217      0.0000414793
 H       0.0000213696      -0.0000016168     -0.0000058180
 H      -0.0000531585       0.0000012155     -0.0000400048
 N       0.0002106121      -0.0001665949      0.0000964129
 H      -0.0001057658       0.0000314752     -0.0000412829
 H      -0.0000060550       0.0000372407     -0.0000123320
 H      -0.0000836739       0.0000459522     -0.0000170176
 N      -0.0000316197       0.0000485343     -0.0000297710
 H       0.0000125808       0.0000100164      0.0000247582
 H      -0.0000070861       0.0000011150      0.0000058033
 H       0.0000303054      -0.0000027097     -0.0000287708
 N      -0.0001450167       0.0001779542     -0.0000696176
 H       0.0001061097      -0.0000392270      0.0000073218
 H       0.0000571248      -0.0000751087      0.0000298923
 H      -0.0000025750      -0.0000306055      0.0000128880
 N      -0.0000739907       0.0001177640     -0.0000827284
 H       0.0000264684      -0.0000000733      0.0000444793
 H       0.0000244626      -0.0000367380     -0.0000339348
 H       0.0000484216      -0.0000560914     -0.0000117544
 N       0.0000517485       0.0000064053      0.0000659504
 H      -0.0000229650       0.0000070335      0.0000229545
 H      -0.0000092521       0.0000017703     -0.0000223674
 H       0.0000032091      -0.0000076139     -0.0000031704
25
terachem gradient in au, energy -406.4048790354, grad_rms 0.000100, grad_max 0.000223 on atom 18
Mo       0.0000273391      -0.0000405619      0.0000174170
 N       0.0000213806      -0.0000866544     -0.0000229592
 H      -0.0000061475      -0.0000068100      0.0000503263
 H       0.0000270990       0.0000310714     -0.0000201947
 H      -0.0000200808       0.0000415539     -0.0000127022
 N      -0.0000882170      -0.0001663469      0.0000778739
 H      -0.0000363028       0.0000323579     -0.0000425816
 H       0.0000795201       0.0000342910     -0.0000015803
 H      -0.0000021567       0.0000425062     -0.0000285576
 N      -0.0000763229       0.0000646882      0.0000300891
 H       0.0000067836      -0.0000021608      0.0000045512
 H      -0.0000274187      -0.0000364405     -0.0000197954
 H       0.0000296412      -0.0000348810     -0.0000156676
 N       0.0001123524       0.0001748722     -0.0000583950
 H       0.0000425476      -0.0000384829      0.0000118692
 H      -0.0000150986      -0.0000733487      0.0000425029
 H      -0.0000819037      -0.0000332285      0.0000021363
 N      -0.0000842726       0.0001818261     -0.0000971567
 H       0.0000065880      -0.0000452879      0.0000694525
 H      -0.0000082663      -0.0000384345     -0.0000132234
 H       0.0000420659      -0.0000491621      0.0000109121
 N       0.0001045582       0.0000994935      0.0000857728
 H      -0.0000273715      -0.0000299394     -0.0000176672
 H      -0.0000049430      -0.0000081670     -0.0000475399
 H      -0.0000213734      -0.0000127538     -0.0000048822
25
terachem gradient in au, energy -406.4048813964, grad_rms 0.000098, grad_max 0.000265 on atom 6
Mo       0.0000298298      -0.0000523020     -0.0000021472
 N      -0.0000043781      -0.0000535176     -0.0000137593
 H      -0.0000030637      -0.0000034295      0.0000372593
 H       0.0000369096       0.0000350238     -0.0000182911
 H      -0.0000192765       0.0000418886     -0.0000033244
 N      -0.0002214122      -0.0001165907      0.0000867266
 H       0.0000179470       0.0000180469     -0.0000343198
 H       0.0000972556       0.0000264562     -0.0000060500
 H       0.0000481675       0.0000178055     -0.0000250071
 N      -0.0000470279       0.0000530472      0.0000282837
 H       0.0000047581      -0.0000061208      0.0000145399
 H      -0.0000276270      -0.0000409095     -0.0000284014
 H       0.0000172204      -0.0000377374     -0.0000159012
 N       0.0002098333       0.0001090420     -0.0000699566
 H      -0.0000121716      -0.0000208507      0.0000076919
 H      -0.0000548283      -0.0000426414      0.0000379317
 H      -0.0000933575      -0.0000194264      0.0000086977
 N      -0.0000054206       0.0001492002     -0.0000442917
 H      -0.0000048691      -0.0000330368      0.0000497454
 H      -0.0000075897      -0.0000189200     -0.0000098226
 H       0.0000150932      -0.0000472867      0.0000176346
 N       0.0000596118       0.0001012347      0.0000514573
 H      -0.0000164243      -0.0000340471     -0.0000234323
 H      -0.0000005851      -0.0000113630     -0.0000375148
 H      -0.0000185942      -0.0000135643     -0.0000077509
25
terachem gradient in au, energy -406.4048822582, grad_rms 0.000068, grad_max 0.000217 on atom 6
Mo       0.0000136308      -0.0000399346     -0.0000191384
 N      -0.0000121109       0.0000170454      0.0000242086
 H      -0.0000021465      -0.0000089462      0.0000184482
 H       0.0000292820       0.0000146841     -0.0000226472
 H      -0.0000252865       0.0000171342     -0.0000089166
 N      -0.0002098457      -0.0000275649      0.0000460815
 H       0.0000479858      -0.0000000354     -0.0000217873
 H       0.0000648189       0.0000083578      0.0000062754
 H       0.0000627485      -0.0000078494     -0.0000048334
 N      -0.0000088909       0.0000016756     -0.0000029870
 H       0.0000028913       0.0000007153      0.0000305231
 H      -0.0000235473      -0.0000192338     -0.0000233987
 H       0.0000159536      -0.0000162271     -0.0000084701
 N       0.0001679135       0.0000037556     -0.0000371783
 H      -0.0000449001       0.0000024750      0.0000013556
 H      -0.0000562826      -0.0000072940      0.0000134121
 H      -0.0000558367       0.0000088575      0.0000015662
 N       0.0000529824       0.0000585440      0.0000254494
 H      -0.0000019920      -0.0000095215      0.0000041390
 H      -0.0000081838      -0.0000017759     -0.0000077902
 H      -0.0000006523      -0.0000195048      0.0000152343
 N      -0.0000026979       0.0000543312     -0.0000107791
 H      -0.0000051734      -0.0000157600     -0.0000137799
 H      -0.0000007539      -0.0000101255     -0.0000070058
 H       0.0000000950      -0.0000038030      0.0000020203
25
terachem gradient in au, energy -406.4048826956, grad_rms 0.000038, grad_max 0.000099 on atom 6
Mo       0.0000075320      -0.0000322609     -0.0000181255
 N       0.0000123816       0.0000426087      0.0000268915
 H      -0.0000024941      -0.0000131801      0.0000152995
 H       0.0000178813       0.0000008403     -0.0000185628
 H      -0.0000291061      -0.0000013839     -0.0000138261
 N      -0.0000976626       0.0000142215      0.0000072855
 H       0.0000302379      -0.0000041345     -0.0000122982
 H       0.0000197690       0.0000064449      0.0000099883
 H       0.0000358411      -0.0000172927      0.0000063176
 N      -0.0000114614      -0.0000245277     -0.0000043230
 H       0.0000012336       0.0000060535      0.0000311504
 H      -0.0000197076      -0.0000000448     -0.0000173788
 H       0.0000229844      -0.0000006680     -0.0000092580
 N       0.0000608065      -0.0000359542     -0.0000078269
 H      -0.0000294189       0.0000077887     -0.0000043663
 H      -0.0000263887       0.0000055918      0.0000009614
 H      -0.0000114023       0.0000131847      0.0000008770
 N       0.0000571789       0.0000088725      0.0000345239
 H      -0.0000025556       0.0000012251     -0.0000127773
 H      -0.0000123470       0.0000042413     -0.0000058040
 H      -0.0000081498      -0.0000005306      0.0000063475
 N      -0.0000248791       0.0000290631     -0.0000251960
 H       0.0000015186      -0.0000065803     -0.0000051216
 H       0.0000001584      -0.0000029273      0.0000073544
 H       0.0000080516      -0.0000006506      0.0000078694
