25
-4.0633895522464786e+02 frame 0   xyz file generated by TeraChem
    Mo     0.0000000000    0.0000000000    0.0000000000
     N     0.0000000000    2.1300000000    0.0000000000
     H    -0.9739800000    2.5065770000   -0.0011880000
     H     0.4862500000    2.5059150000    0.8445040000
     H     0.4884170000    2.5058450000   -0.8432820000
     N     2.1300000000    0.0000000000    0.0000000000
     H     2.5066040000    0.9738910000    0.0136260000
     H     2.5059520000   -0.4993050000    0.8369350000
     H     2.5059180000   -0.4759360000   -0.8504160000
     N     0.0000000000   -2.1300000000    0.0000000000
     H     0.9712230000   -2.5065910000    0.0733180000
     H    -0.5500440000   -2.5073230000    0.8033910000
     H    -0.4236690000   -2.5088210000   -0.8751910000
     N    -2.1300000000    0.0000000000    0.0000000000
     H    -2.5065960000   -0.9736110000   -0.0259790000
     H    -2.5080800000    0.4649200000    0.8545190000
     H    -2.5076760000    0.5097040000   -0.8289850000
     N     0.0000000000    0.0000000000    2.1300000000
     H    -0.8605380000    0.4534990000    2.5080950000
     H     0.0397420000   -0.9720070000    2.5080230000
     H     0.8236370000    0.5208720000    2.5059340000
     N     0.0000000000    0.0000000000   -2.1300000000
     H    -0.8579360000    0.4589470000   -2.5077600000
     H     0.8268280000    0.5157040000   -2.5060360000
     H     0.0338190000   -0.9709990000   -2.5094570000
25
-4.0638619580940286e+02 frame 1   xyz file generated by TeraChem
    Mo    -0.0004219570    0.0002418241    0.0000880156
     N    -0.0022749894    2.2087008439   -0.0004326753
     H    -0.9502396011    2.6138296882   -0.0016567651
     H     0.4755767177    2.5995516834    0.8246094692
     H     0.4774984551    2.5981138884   -0.8249251353
     N     2.2214126661   -0.0020369453    0.0006509447
     H     2.6243969258    0.9454141524    0.0139780791
     H     2.6228226217   -0.4881135300    0.8154670825
     H     2.6230353111   -0.4655010479   -0.8270732575
     N     0.0011599263   -2.2099646417    0.0008566003
     H     0.9467142508   -2.6150500192    0.0719242632
     H    -0.5394491920   -2.6016467412    0.7857285697
     H    -0.4161314992   -2.6025861582   -0.8544864192
     N    -2.2187260171    0.0029074046   -0.0003470091
     H    -2.6193488395   -0.9450083382   -0.0256936965
     H    -2.6239308101    0.4559819423    0.8320406346
     H    -2.6229636475    0.4993532544   -0.8080931626
     N     0.0004201208    0.0014449326    2.2077331065
     H    -0.8409696453    0.4421426069    2.6104606955
     H     0.0395873577   -0.9512067814    2.5939817231
     H     0.8055360426    0.5069099736    2.6076830138
     N    -0.0014111046    0.0029693107   -2.2080307799
     H    -0.8406060434    0.4493087050   -2.6089005100
     H     0.8065165241    0.5038559233   -2.6083915559
     H     0.0316674536   -0.9483310398   -2.5971202651
25
-4.0640218379376961e+02 frame 2   xyz file generated by TeraChem
    Mo     0.0000894559    0.0016248869    0.0004225038
     N    -0.0034838050    2.2808686574   -0.0008354851
     H    -0.9311162431    2.7125447709   -0.0012147935
     H     0.4781107353    2.6813336133    0.8084304898
     H     0.4785652428    2.6798136679   -0.8106656182
     N     2.3045540440   -0.0123761368   -0.0002708831
     H     2.7303325987    0.9168177977    0.0122992833
     H     2.7238588359   -0.4911513526    0.8002057904
     H     2.7230606008   -0.4695152699   -0.8136372209
     N     0.0018433527   -2.2817474431    0.0020909462
     H     0.9268772411   -2.7141612349    0.0686351145
     H    -0.5403272170   -2.6836283818    0.7714982276
     H    -0.4213032458   -2.6823713745   -0.8391692948
     N    -2.3035383334    0.0149679318    0.0010317698
     H    -2.7250565067   -0.9157972263   -0.0235981491
     H    -2.7272887080    0.4597812020    0.8187277450
     H    -2.7266940397    0.5017351424   -0.7927406204
     N     0.0023402844    0.0071709385    2.2810715056
     H    -0.8260828964    0.4308842266    2.7071788100
     H     0.0395835495   -0.9390699263    2.6686063111
     H     0.7999548113    0.4909979249    2.7020840741
     N    -0.0019150386    0.0116741281   -2.2810527392
     H    -0.8288233964    0.4417863455   -2.7036971028
     H     0.7976788790    0.4920007433   -2.7023127453
     H     0.0286502856   -0.9329030478   -2.6730377237
25
-4.0640372501073784e+02 frame 3   xyz file generated by TeraChem
    Mo    -0.0001535436    0.0015597157    0.0005850143
     N     0.0023727944    2.3066588287    0.0002781380
     H    -0.9200790032    2.7507716577    0.0012748660
     H     0.4921629139    2.7040599788    0.8074951040
     H     0.4902924090    2.7031241352   -0.8084997677
     N     2.3419563289   -0.0264936457   -0.0011231934
     H     2.7760741741    0.9002303585    0.0109711867
     H     2.7629944784   -0.5066983691    0.7990963101
     H     2.7616860360   -0.4855183044   -0.8143108713
     N    -0.0057491431   -2.3103506144    0.0014491774
     H     0.9134361275   -2.7571738851    0.0645811828
     H    -0.5541851774   -2.7100180105    0.7688493385
     H    -0.4384238674   -2.7065905391   -0.8382589862
     N    -2.3402075423    0.0286844007    0.0023361531
     H    -2.7688451504   -0.9002393445   -0.0218414700
     H    -2.7649468069    0.4748427942    0.8203226985
     H    -2.7646183934    0.5161712871   -0.7918874647
     N     0.0058508669    0.0125779989    2.3071602143
     H    -0.8210680846    0.4327776462    2.7416847143
     H     0.0397310807   -0.9379050370    2.6872764465
     H     0.8081127517    0.4854151039    2.7337182231
     N    -0.0047695876    0.0191360353   -2.3071334849
     H    -0.8314144924    0.4461801780   -2.7353811227
     H     0.7981702191    0.4892294271   -2.7355260391
     H     0.0214905012   -0.9291510594   -2.6930659904
25
-4.0640392472120033e+02 frame 4   xyz file generated by TeraChem
    Mo    -0.0003812227    0.0004657225    0.0007229066
     N     0.0189789355    2.3113810485    0.0021216330
     H    -0.8976562744    2.7660123076    0.0050492242
     H     0.5154018664    2.7012949984    0.8082017822
     H     0.5107491621    2.7015803621   -0.8066679088
     N     2.3559401706   -0.0432709497   -0.0039175905
     H     2.7946918171    0.8806575990    0.0075434104
     H     2.7744031631   -0.5255074891    0.7956404768
     H     2.7712775379   -0.5044196824   -0.8173528125
     N    -0.0232784428   -2.3193810888   -0.0000315759
     H     0.8896042420   -2.7780999156    0.0596724711
     H    -0.5757552145   -2.7128472162    0.7670207571
     H    -0.4639872792   -2.7075748809   -0.8387570144
     N    -2.3536925174    0.0440606343    0.0053426846
     H    -2.7870726501   -0.8820047429   -0.0181383216
     H    -2.7738655114    0.4924870754    0.8236350895
     H    -2.7750691088    0.5334944787   -0.7884828184
     N     0.0093219357    0.0165665685    2.3131573368
     H    -0.8140389519    0.4385096464    2.7514040269
     H     0.0372422115   -0.9365844083    2.6859746278
     H     0.8157998492    0.4798998698    2.7407549130
     N    -0.0074623942    0.0260171308   -2.3131253380
     H    -0.8317775723    0.4554166815   -2.7421586195
     H     0.7983889583    0.4874050491   -2.7440761390
     H     0.0121072679   -0.9242772905   -2.6934821485
25
-4.0640415386040218e+02 frame 5   xyz file generated by TeraChem
    Mo    -0.0008449501   -0.0025961990    0.0008980643
     N     0.0663180985    2.3113872151    0.0064747203
     H    -0.8380491248    2.7891913934    0.0139262876
     H     0.5766166751    2.6843965725    0.8113288798
     H     0.5654648938    2.6878989660   -0.8037608861
     N     2.3695715319   -0.0857178101   -0.0110434555
     H     2.8203588743    0.8320441056   -0.0007927461
     H     2.7810130401   -0.5742305045    0.7876642282
     H     2.7733279735   -0.5527714061   -0.8262433952
     N    -0.0718840719   -2.3284650490   -0.0038657286
     H     0.8280087714   -2.8123211737    0.0486812119
     H    -0.6318370047   -2.7079153805    0.7644131014
     H    -0.5289591168   -2.6992941828   -0.8413583496
     N    -2.3667925831    0.0825674092    0.0127751392
     H    -2.8134176121   -0.8368204802   -0.0092800148
     H    -2.7749177664    0.5375996061    0.8328192980
     H    -2.7801705002    0.5784808627   -0.7805282278
     N     0.0179504442    0.0225000403    2.3170674913
     H    -0.7966335342    0.4540046268    2.7615242687
     H     0.0302572549   -0.9349964822    2.6790584627
     H     0.8349195795    0.4662625134    2.7445107007
     N    -0.0143135419    0.0397252913   -2.3169826986
     H    -0.8328254513    0.4801723424   -2.7450135568
     H     0.7989056833    0.4835039311   -2.7516543716
     H    -0.0121971949   -0.9133238016   -2.6905672153
25
-4.0640321419857383e+02 frame 6   xyz file generated by TeraChem
    Mo    -0.0027157608   -0.0149928840    0.0011838182
     N     0.2572753090    2.2914787581    0.0212559431
     H    -0.5951853324    2.8551048970    0.0462451205
     H     0.8148239370    2.5996543509    0.8207266314
     H     0.7789761316    2.6171731756   -0.7954497652
     N     2.3939177803   -0.2544687322   -0.0403141643
     H     2.8953443795    0.6358659417   -0.0348470436
     H     2.7783012814   -0.7676265830    0.7545731184
     H     2.7523411192   -0.7432528371   -0.8620366414
     N    -0.2671303537   -2.3414937667   -0.0173531318
     H     0.5781728680   -2.9161946465    0.0084458038
     H    -0.8492962471   -2.6683527517    0.7576622885
     H    -0.7796466260   -2.6460246060   -0.8487538700
     N    -2.3898190119    0.2347590393    0.0428598274
     H    -2.8925173762   -0.6544827518    0.0266676022
     H    -2.7503310259    0.7144045471    0.8692982082
     H    -2.7724868973    0.7561838486   -0.7476274639
     N     0.0536006807    0.0382941928    2.3228608208
     H    -0.7244325215    0.5107631602    2.7885532889
     H     0.0040655958   -0.9287882157    2.6543280730
     H     0.9067720812    0.4090232610    2.7465468145
     N    -0.0415813248    0.0908349280   -2.3220647186
     H    -0.8357793819    0.5788774437   -2.7418822951
     H     0.7953019578    0.4701449136   -2.7703367890
     H    -0.1081009065   -0.8656006167   -2.6804899673
25
-4.0640426136764734e+02 frame 7   xyz file generated by TeraChem
    Mo    -0.0017562183   -0.0087959048    0.0010406332
     N     0.1637059843    2.3019768726    0.0138108966
     H    -0.7156047446    2.8238263295    0.0299778229
     H     0.6984428649    2.6429166211    0.8163325028
     H     0.6747668525    2.6529064274   -0.7998605281
     N     2.3811314132   -0.1706718300   -0.0257092660
     H     2.8578922678    0.7335510174   -0.0175748829
     H     2.7787977824   -0.6722763241    0.7709691781
     H     2.7618648773   -0.6490896417   -0.8444630759
     N    -0.1713285706   -2.3353986058   -0.0104769211
     H     0.7023108085   -2.8659046036    0.0290210676
     H    -0.7431333782   -2.6883287965    0.7613179243
     H    -0.6567934862   -2.6736539591   -0.8454785673
     N    -2.3778081974    0.1591832295    0.0278484065
     H    -2.8533119589   -0.7453159450    0.0084062293
     H    -2.7618118039    0.6270770601    0.8513958295
     H    -2.7755774937    0.6687571843   -0.7638808550
     N     0.0360609493    0.0298938515    2.3187843226
     H    -0.7599391719    0.4831206830    2.7742234415
     H     0.0171098413   -0.9331474723    2.6652900551
     H     0.8722533629    0.4371923976    2.7441557261
     N    -0.0285824836    0.0653656675   -2.3184368803
     H    -0.8347504434    0.5309748017   -2.7421918641
     H     0.7974367824    0.4769926976   -2.7595223088
     H    -0.0615055351   -0.8898686614   -2.6849276270
25
-4.0640448577783889e+02 frame 8   xyz file generated by TeraChem
    Mo    -0.0015547598   -0.0080126030    0.0008806555
     N     0.1279871831    2.2998920020    0.0114831518
     H    -0.7604482806    2.8069945920    0.0258872208
     H     0.6550553503    2.6525849766    0.8146322801
     H     0.6336244727    2.6605923565   -0.8018892777
     N     2.3693778294   -0.1430924708   -0.0221301721
     H     2.8398570806    0.7647566978   -0.0136280439
     H     2.7713180655   -0.6415217915    0.7750590408
     H     2.7563805512   -0.6189633668   -0.8400974820
     N    -0.1358366782   -2.3294074085   -0.0084684727
     H     0.7474216301   -2.8443259890    0.0338928157
     H    -0.7019933905   -2.6923672380    0.7634110939
     H    -0.6127481243   -2.6792591887   -0.8440843021
     N    -2.3666651373    0.1314742796    0.0242065056
     H    -2.8355063599   -0.7768714931    0.0043876005
     H    -2.7571258180    0.5966521190    0.8469339910
     H    -2.7693545555    0.6378734236   -0.7677609646
     N     0.0344694257    0.0272831150    2.3137810538
     H    -0.7671580612    0.4737658363    2.7668280920
     H     0.0280536584   -0.9334696225    2.6677434602
     H     0.8650245281    0.4487407567    2.7374191255
     N    -0.0273856009    0.0595024846   -2.3135076901
     H    -0.8387018625    0.5177686058   -2.7364068615
     H     0.7935680042    0.4846012833   -2.7522159546
     H    -0.0477885221   -0.8939085161   -2.6863054959
25
-4.0640465595037557e+02 frame 9   xyz file generated by TeraChem
    Mo    -0.0019149419   -0.0115579982    0.0006416165
     N     0.1367601357    2.2901082269    0.0134178901
     H    -0.7487167336    2.8032157407    0.0318946863
     H     0.6683090340    2.6401216658    0.8152353391
     H     0.6409155070    2.6504268147   -0.8014815635
     N     2.3564927219   -0.1544317146   -0.0289278036
     H     2.8350838939    0.7495858409   -0.0217844276
     H     2.7579200184   -0.6563731823    0.7668005186
     H     2.7379852503   -0.6333872743   -0.8481171119
     N    -0.1462408327   -2.3248497238   -0.0103440409
     H     0.7340961455   -2.8460813256    0.0265889004
     H    -0.7102510572   -2.6869228804    0.7640509356
     H    -0.6290172173   -2.6713648873   -0.8444404629
     N    -2.3547293618    0.1358928971    0.0309787047
     H    -2.8330852629   -0.7679683026    0.0129129701
     H    -2.7390861208    0.6049471088    0.8548441098
     H    -2.7566052567    0.6461312489   -0.7594584868
     N     0.0461884285    0.0280379680    2.3078394682
     H    -0.7515611357    0.4779307133    2.7650009316
     H     0.0398513116   -0.9316164523    2.6656455137
     H     0.8802236849    0.4488388132    2.7260516872
     N    -0.0369734341    0.0679412061   -2.3074044256
     H    -0.8486349188    0.5310915132   -2.7250470186
     H     0.7833414613    0.4942969492   -2.7468850886
     H    -0.0604795715   -0.8827295820   -2.6879618297
25
-4.0640476375932872e+02 frame 10   xyz file generated by TeraChem
    Mo    -0.0025788963   -0.0188063023    0.0002274046
     N     0.1606102269    2.2771722152    0.0188857327
     H    -0.7171085549    2.8039808142    0.0468779026
     H     0.7034989356    2.6188048928    0.8170951643
     H     0.6625879670    2.6353563872   -0.7986756103
     N     2.3422024858   -0.1849549513   -0.0476899351
     H     2.8380164598    0.7103299441   -0.0444036279
     H     2.7437233046   -0.6941630819    0.7439404669
     H     2.7103469830   -0.6701153779   -0.8697763457
     N    -0.1731246525   -2.3230118458   -0.0152613668
     H     0.6990922168   -2.8593630507    0.0090223702
     H    -0.7336716765   -2.6814291934    0.7638575211
     H    -0.6705492723   -2.6596091392   -0.8453040851
     N    -2.3419683100    0.1522370126    0.0493731567
     H    -2.8395883867   -0.7418591132    0.0359315927
     H    -2.7119809708    0.6288230308    0.8759528274
     H    -2.7431665391    0.6699927937   -0.7371180394
     N     0.0706599862    0.0316004847    2.3020426250
     H    -0.7180661807    0.4888436273    2.7682015573
     H     0.0620908257   -0.9263542752    2.6655256291
     H     0.9126924694    0.4478963827    2.7093723499
     N    -0.0573478008    0.0857414564   -2.3012918920
     H    -0.8688845267    0.5590112269   -2.7085780955
     H     0.7623429079    0.5112038443   -2.7436021334
     H    -0.0899555402   -0.8600427066   -2.6945543024
25
-4.0640479291780366e+02 frame 11   xyz file generated by TeraChem
    Mo    -0.0028162992   -0.0217229392    0.0000695692
     N     0.1618615492    2.2756284412    0.0208894132
     H    -0.7151149449    2.8034462603    0.0528252944
     H     0.7080164229    2.6160382080    0.8173869888
     H     0.6615435879    2.6352057834   -0.7974773216
     N     2.3408687537   -0.1897850681   -0.0578460891
     H     2.8404279015    0.7035806829   -0.0571756271
     H     2.7455325033   -0.7001068184    0.7316278930
     H     2.7046043681   -0.6763357173   -0.8812256386
     N    -0.1752166487   -2.3255123585   -0.0166900512
     H     0.6960204623   -2.8637062754    0.0024325628
     H    -0.7327770919   -2.6843620560    0.7644081183
     H    -0.6774628605   -2.6602124056   -0.8446461673
     N    -2.3413364702    0.1510666781    0.0591320182
     H    -2.8429060016   -0.7410161330    0.0486198740
     H    -2.7067949179    0.6294022722    0.8868765697
     H    -2.7454645336    0.6697360181   -0.7254169302
     N     0.0804277964    0.0344932643    2.3016857315
     H    -0.7062415061    0.4923911265    2.7708277788
     H     0.0747365750   -0.9221069164    2.6690818893
     H     0.9240561314    0.4529772453    2.7035406575
     N    -0.0659350992    0.0907063015   -2.3010660302
     H    -0.8790943430    0.5651645419   -2.7039392825
     H     0.7518045900    0.5192419653   -2.7441493437
     H    -0.0988665354   -0.8529266781   -2.6997212581
25
-4.0640484571706071e+02 frame 12   xyz file generated by TeraChem
    Mo    -0.0035660425   -0.0306148236   -0.0003736358
     N     0.1577786952    2.2731155017    0.0247762883
     H    -0.7196814632    2.7989829671    0.0675055425
     H     0.7115188232    2.6122292336    0.8163939781
     H     0.6491520569    2.6378064767   -0.7962320202
     N     2.3411711072   -0.1921627370   -0.0900859982
     H     2.8448096921    0.6990963588   -0.0988175818
     H     2.7586240441   -0.7024645392    0.6930190340
     H     2.6930234796   -0.6813117773   -0.9173752388
     N    -0.1728410143   -2.3354493158   -0.0184979453
     H     0.6980231438   -2.8743118730   -0.0138915181
     H    -0.7195629329   -2.6962456934    0.7692700844
     H    -0.6879013288   -2.6670280313   -0.8397920986
     N    -2.3436504848    0.1351785912    0.0900899128
     H    -2.8492086538   -0.7549185438    0.0899914918
     H    -2.6972596269    0.6170698043    0.9211755247
     H    -2.7601414712    0.6527577705   -0.6889597488
     N     0.1089223247    0.0451740435    2.3006512027
     H    -0.6738145483    0.5021450135    2.7774807635
     H     0.1171317092   -0.9065785847    2.6809448020
     H     0.9549930441    0.4755603137    2.6844721871
     N    -0.0917673224    0.1032971004   -2.3010133564
     H    -0.9121345971    0.5777738084   -2.6893933044
     H     0.7177596821    0.5458348783   -2.7455446839
     H    -0.1215042258   -0.8336512786   -2.7157443057
25
-4.0640485704676740e+02 frame 13   xyz file generated by TeraChem
    Mo    -0.0034897450   -0.0308315201   -0.0003804128
     N     0.1519711197    2.2737316460    0.0230469627
     H    -0.7274588845    2.7962892867    0.0642688876
     H     0.7034552504    2.6148169793    0.8152931023
     H     0.6429063957    2.6389992009   -0.7978851352
     N     2.3432477538   -0.1882217998   -0.0895912375
     H     2.8434194939    0.7048201696   -0.0992103351
     H     2.7617973515   -0.6967155895    0.6939252019
     H     2.6955440554   -0.6769889479   -0.9167801936
     N    -0.1670188962   -2.3363910810   -0.0165910433
     H     0.7056417817   -2.8721689791   -0.0108090181
     H    -0.7128792817   -2.6974931855    0.7715682057
     H    -0.6805503660   -2.6699636677   -0.8379537886
     N    -2.3454498819    0.1302366936    0.0895255780
     H    -2.8469392439   -0.7620048989    0.0904222059
     H    -2.7000033073    0.6116692924    0.9203446090
     H    -2.7633370195    0.6455394416   -0.6901150496
     N     0.1070918825    0.0466523802    2.3005233984
     H    -0.6770541299    0.5021367784    2.7763938360
     H     0.1182076652   -0.9047122556    2.6815789728
     H     0.9518487636    0.4799332285    2.6838826595
     N    -0.0902650099    0.1027327957   -2.3012063538
     H    -0.9117909931    0.5754148271   -2.6892071446
     H     0.7181982389    0.5479333610   -2.7448635438
     H    -0.1172193294   -0.8341291924   -2.7161312015
25
-4.0640486893938726e+02 frame 14   xyz file generated by TeraChem
    Mo    -0.0035189152   -0.0325827224   -0.0005587773
     N     0.1463471509    2.2725355459    0.0199715614
     H    -0.7355293141    2.7910330123    0.0585186002
     H     0.6943543667    2.6160164058    0.8134379582
     H     0.6371815601    2.6379818987   -0.8007867114
     N     2.3457530162   -0.1830753625   -0.0891492982
     H     2.8395347108    0.7131955061   -0.1013676132
     H     2.7665935625   -0.6877137282    0.6953684640
     H     2.6980446371   -0.6717951770   -0.9161255275
     N    -0.1616133577   -2.3382723299   -0.0129319622
     H     0.7129990979   -2.8706745213   -0.0059816550
     H    -0.7058279928   -2.6986272967    0.7766035296
     H    -0.6740699177   -2.6743389144   -0.8338447660
     N    -2.3476242778    0.1207597977    0.0890111289
     H    -2.8416942049   -0.7753259129    0.0930258169
     H    -2.7030790719    0.6022646324    0.9191755813
     H    -2.7684549505    0.6310533617   -0.6920889015
     N     0.1071806336    0.0524553732    2.2989533116
     H    -0.6785899312    0.5058694017    2.7740297360
     H     0.1241428466   -0.8976817271    2.6827434507
     H     0.9503781687    0.4913426395    2.6792840868
     N    -0.0904825779    0.1033033095   -2.3006020867
     H    -0.9145849447    0.5731027885   -2.6863993804
     H     0.7156083557    0.5534978322   -2.7434116801
     H    -0.1131749638   -0.8330395734   -2.7168265093
25
-4.0640487048712424e+02 frame 15   xyz file generated by TeraChem
    Mo    -0.0033993512   -0.0337935043   -0.0006701997
     N     0.1450621876    2.2712337843    0.0178202748
     H    -0.7376589088    2.7884451157    0.0542400075
     H     0.6909331042    2.6161538369    0.8121013918
     H     0.6367712651    2.6364740898   -0.8024786718
     N     2.3461744279   -0.1849159505   -0.0888899070
     H     2.8383084027    0.7121593905   -0.1029422774
     H     2.7677966385   -0.6877264686    0.6962977780
     H     2.6979008231   -0.6744521564   -0.9155002665
     N    -0.1607196004   -2.3390968436   -0.0103393300
     H     0.7143284804   -2.8707659274   -0.0025950161
     H    -0.7045585422   -2.6985988448    0.7798577482
     H    -0.6728271043   -2.6766093595   -0.8308894197
     N    -2.3476655681    0.1193513702    0.0885802608
     H    -2.8394652009   -0.7779090246    0.0948590293
     H    -2.7031378127    0.6018515087    0.9180547231
     H    -2.7696740210    0.6270010659   -0.6935442013
     N     0.1062062025    0.0569692100    2.2979430978
     H    -0.6802819863    0.5098894708    2.7723005457
     H     0.1251967326   -0.8924317031    2.6836110279
     H     0.9487774584    0.4980270344    2.6771905817
     N    -0.0894290623    0.1039687623   -2.3000895702
     H    -0.9142804437    0.5727069997   -2.6855728012
     H     0.7160317784    0.5556030756   -2.7425453204
     H    -0.1105161533   -0.8322502489   -2.7167506589
25
-4.0640487675096011e+02 frame 16   xyz file generated by TeraChem
    Mo    -0.0031215861   -0.0359473182   -0.0009157681
     N     0.1452298614    2.2690935128    0.0131063250
     H    -0.7384497944    2.7850479409    0.0442159107
     H     0.6866156949    2.6168464085    0.8092043134
     H     0.6401827746    2.6334146995   -0.8056181879
     N     2.3462470900   -0.1883091784   -0.0858346373
     H     2.8361552214    0.7098988401   -0.1029560475
     H     2.7687740860   -0.6873923930    0.7012117815
     H     2.6987260578   -0.6796692225   -0.9109872410
     N    -0.1612604620   -2.3407215091   -0.0048494626
     H     0.7140154274   -2.8720512997    0.0053625890
     H    -0.7055690661   -2.6981609593    0.7859838946
     H    -0.6723649269   -2.6812421533   -0.8248394447
     N    -2.3470967539    0.1172005244    0.0852315023
     H    -2.8356771109   -0.7817610817    0.0955856374
     H    -2.7041154918    0.6020579236    0.9126329044
     H    -2.7706984661    0.6195848181   -0.6994264020
     N     0.1025070876    0.0661330136    2.2965345075
     H    -0.6857718952    0.5183116275    2.7686629900
     H     0.1241350481   -0.8817416879    2.6861382935
     H     0.9435529754    0.5108600946    2.6749703667
     N    -0.0857604750    0.1041081026   -2.2996181909
     H    -0.9113872341    0.5706448310   -2.6861184537
     H     0.7191688746    0.5573709306   -2.7414023454
     H    -0.1041626071   -0.8322902026   -2.7162254682
25
-4.0640487987427400e+02 frame 17   xyz file generated by TeraChem
    Mo    -0.0028409346   -0.0371750661   -0.0010833737
     N     0.1466763000    2.2680947878    0.0094140095
     H    -0.7371492541    2.7840636431    0.0362703955
     H     0.6849643988    2.6177139665    0.8068344694
     H     0.6447098693    2.6312883145   -0.8079645980
     N     2.3458136247   -0.1926129326   -0.0826610712
     H     2.8362907575    0.7053337205   -0.1013550099
     H     2.7677646523   -0.6897797025    0.7059764941
     H     2.6995407970   -0.6858308845   -0.9062324257
     N    -0.1627748912   -2.3417530388   -0.0007677282
     H     0.7121887280   -2.8736144564    0.0115272899
     H    -0.7080724660   -2.6974581287    0.7902239962
     H    -0.6731904124   -2.6842518095   -0.8204440114
     N    -2.3462666037    0.1183139572    0.0818527886
     H    -2.8349869685   -0.7806248995    0.0946293136
     H    -2.7046971148    0.6055999633    0.9072834774
     H    -2.7696445291    0.6178481903   -0.7048242723
     N     0.0989333926    0.0719408975    2.2961264706
     H    -0.6907623666    0.5241760997    2.7658715264
     H     0.1209528040   -0.8748907486    2.6884559653
     H     0.9388185871    0.5184243901    2.6750997247
     N    -0.0822739476    0.1036458932   -2.2997047311
     H    -0.9076815047    0.5691266657   -2.6879746176
     H     0.7230411381    0.5568547622   -2.7408581315
     H    -0.0994800572   -0.8331461541   -2.7156455426
25
-4.0640487903544130e+02 frame 18   xyz file generated by TeraChem
    Mo    -0.0024982494   -0.0380563049   -0.0012213478
     N     0.1491443185    2.2676373475    0.0051738807
     H    -0.7344740002    2.7842045347    0.0269586667
     H     0.6839598483    2.6188903339    0.8042374121
     H     0.6512016717    2.6290997321   -0.8105099258
     N     2.3454007353   -0.1960173905   -0.0785697551
     H     2.8371927974    0.7012983046   -0.0981567070
     H     2.7657567877   -0.6915758506    0.7120383682
     H     2.7012891796   -0.6912850940   -0.9000987126
     N    -0.1647466927   -2.3426528982    0.0037552447
     H     0.7096981124   -2.8753462777    0.0187500837
     H    -0.7117154761   -2.6962827241    0.7945489601
     H    -0.6740915435   -2.6870013991   -0.8158642477
     N    -2.3454770397    0.1196397622    0.0774721755
     H    -2.8354168647   -0.7787051110    0.0921659550
     H    -2.7058435082    0.6097920572    0.9004721535
     H    -2.7674441096    0.6167817953   -0.7115773911
     N     0.0929121686    0.0770753120    2.2962811191
     H    -0.6989554158    0.5296213538    2.7620545929
     H     0.1143087295   -0.8686284887    2.6914599148
     H     0.9309951727    0.5253254228    2.6771534448
     N    -0.0767973265    0.1019644188   -2.3002077879
     H    -0.9013509979    0.5664647444   -2.6914388396
     H     0.7295878231    0.5545388224   -2.7400394466
     H    -0.0927621664   -0.8354944957   -2.7147860140
25
-4.0640488139635613e+02 frame 19   xyz file generated by TeraChem
    Mo    -0.0024014845   -0.0383598235   -0.0013363465
     N     0.1493624254    2.2676780619    0.0035374202
     H    -0.7341618703    2.7844895341    0.0230653770
     H     0.6826744540    2.6194924077    0.8033671080
     H     0.6532028967    2.6283140347   -0.8113943433
     N     2.3452833592   -0.1974235818   -0.0759138597
     H     2.8386428626    0.6990830968   -0.0952465637
     H     2.7635610357   -0.6928087188    0.7159413884
     H     2.7025859902   -0.6939658320   -0.8961283618
     N    -0.1646727341   -2.3429726887    0.0053953583
     H     0.7096476977   -2.8758440426    0.0213954705
     H    -0.7121714242   -2.6957411095    0.7961977156
     H    -0.6737085347   -2.6879978458   -0.8141457499
     N    -2.3453799664    0.1204670778    0.0747979798
     H    -2.8371019270   -0.7769360831    0.0898843387
     H    -2.7066870665    0.6124682600    0.8963400574
     H    -2.7653421448    0.6172005874   -0.7156073249
     N     0.0915253885    0.0789222486    2.2965034944
     H    -0.7012809607    0.5319132921    2.7602261411
     H     0.1127713827   -0.8660444774    2.6933867466
     H     0.9287636919    0.5283298733    2.6778111886
     N    -0.0755970187    0.1005310278   -2.3006273718
     H    -0.8998073115    0.5647385436   -2.6928896756
     H     0.7312068026    0.5529240801   -2.7398400425
     H    -0.0910417755   -0.8371698962   -2.7146678710
25
-4.0640488225823970e+02 frame 20   xyz file generated by TeraChem
    Mo    -0.0023241326   -0.0387416806   -0.0014648156
     N     0.1493834826    2.2676064795    0.0012841064
     H    -0.7339900134    2.7847554983    0.0177694015
     H     0.6806632566    2.6200170561    0.8021666430
     H     0.6556182665    2.6268590379   -0.8127418766
     N     2.3456173154   -0.1980077664   -0.0731162501
     H     2.8404901548    0.6976711345   -0.0919536619
     H     2.7608715671   -0.6932963043    0.7203837258
     H     2.7043700489   -0.6960688320   -0.8917777988
     N    -0.1641023447   -2.3432612586    0.0076277892
     H     0.7101246125   -2.8762196599    0.0247455752
     H    -0.7120327111   -2.6946433336    0.7987227754
     H    -0.6729298560   -2.6890965939   -0.8116717811
     N    -2.3456946332    0.1205662357    0.0719146698
     H    -2.8393236327   -0.7757721787    0.0874761240
     H    -2.7078086159    0.6149794207    0.8916408934
     H    -2.7627146678    0.6168411017   -0.7203218755
     N     0.0894125178    0.0808132183    2.2967012721
     H    -0.7047583688    0.5343026590    2.7575197910
     H     0.1107312029   -0.8631186605    2.6959372535
     H     0.9254007352    0.5321750906    2.6784267051
     N    -0.0740334364    0.0985912942   -2.3010404304
     H    -0.8978684146    0.5624614005   -2.6944350009
     H     0.7332466985    0.5511626997   -2.7391165413
     H    -0.0884757849   -0.8392885341   -2.7146225829
25
-4.0640488269558153e+02 frame 21   xyz file generated by TeraChem
    Mo    -0.0022760066   -0.0390722257   -0.0015153429
     N     0.1497228029    2.2672860936   -0.0003072150
     H    -0.7334834640    2.7847754385    0.0141047103
     H     0.6795794377    2.6200444035    0.8013491634
     H     0.6576498511    2.6255643415   -0.8136854410
     N     2.3460127480   -0.1980255089   -0.0721319941
     H     2.8411445630    0.6974725158   -0.0908832614
     H     2.7598589238   -0.6930958857    0.7221814043
     H     2.7051393259   -0.6968287697   -0.8901319096
     N    -0.1640054456   -2.3434122016    0.0092818377
     H     0.7101073252   -2.8765199226    0.0269576191
     H    -0.7120648155   -2.6937641514    0.8007283424
     H    -0.6728764317   -2.6897780688   -0.8097544649
     N    -2.3459308884    0.1201232777    0.0707905542
     H    -2.8399794588   -0.7759388522    0.0869437310
     H    -2.7082125398    0.6158776818    0.8895876826
     H    -2.7616234944    0.6157673219   -0.7224811529
     N     0.0873560891    0.0822259381    2.2966410696
     H    -0.7077561955    0.5358893322    2.7556425655
     H     0.1088916541   -0.8610463054    2.6973860587
     H     0.9224812486    0.5349302525    2.6786498340
     N    -0.0725301710    0.0975747138   -2.3011245734
     H    -0.8961535637    0.5611783047   -2.6952312035
     H     0.7350211777    0.5504268149   -2.7383852353
     H    -0.0862001483   -0.8403667654   -2.7145587568
