55
-1.8960171259993945e+03 frame 80   xyz file generated by TeraChem
    Mn    -0.0953980080    0.1272647567    0.3858218781
     C    -1.6891472532    2.4385649274    0.9341970188
     N    -0.4298449492    1.9021056054    0.8634782714
     C     0.4800549932    2.9350895528    0.8988091740
     C     1.9531635605    2.7136988582    0.7839014452
     C     2.5005291184    1.3411885319    0.9526958669
     N     1.7557939007    0.2058248906    0.8178372398
     C     2.5812297376   -0.8591725947    0.9587991428
     O     2.1770560370   -2.1437647666    0.9742468373
     C     1.1373319156   -2.7318752142    0.3078963123
     O    -0.0305616054   -1.9788939990    0.2702518016
     C    -1.1207222432   -2.4915255228   -0.4921293332
     C    -2.1404608123   -1.4652066058   -0.7592915475
     O    -2.1049121944   -0.4175295039    0.2002032354
     C    -2.9628312547    0.6911791871   -0.0131999352
     O    -2.8029071214    1.6174351583    0.9680858187
     C    -3.8497354259    0.7409685996   -0.9930594034
     C    -4.0252173493   -0.3741418569   -1.9848208935
     C    -3.0008445648   -1.4500814216   -1.7761679541
     C    -1.1228469837   -3.7571136609   -0.9077490042
     C     0.0438744746   -4.6888147361   -0.7422202239
     C     1.2260311744   -3.9748601483   -0.1490680077
     C     3.9072104638   -0.4275595983    1.2212612280
     C     3.8549579837    0.9570228539    1.2057999418
     C    -0.2305451462    4.1276119658    1.0384165269
     C    -1.6159926614    3.8131375989    1.0654160548
     H     2.4773994374    3.3750501934    1.4856504576
     H     2.2815405813    3.0501479412   -0.2188238672
     H    -4.4681758687    1.6281222256   -1.0633592579
     H    -3.9403264554    0.0160556948   -3.0085313185
     H    -5.0398033666   -0.7959463824   -1.9163429731
     H    -2.9422859567   -2.2532163437   -2.5019713907
     H    -2.0052402809   -4.1214303460   -1.4215648597
     H     0.3109504284   -5.1185735971   -1.7179445710
     H    -0.2380078110   -5.5482141549   -0.1145207244
     H     2.1804910623   -4.4797960757   -0.0627141250
     H     4.7554609452   -1.0734884934    1.3932833237
     H     4.6752622668    1.6433879957    1.3635931521
     H     0.2033937283    5.1152731747    1.1201230473
     H    -2.4489986376    4.4913337240    1.1789727678
     P    -0.4540439379   -0.1890615171    2.9803334477
     C     0.8143259021    0.7918600688    3.8428228014
     C     2.0201561297    0.1903644360    4.2288037867
     C     3.0567824889    0.9688917546    4.7396441622
     C     2.8977354884    2.3503186986    4.8675773192
     C     1.6954963188    2.9511361547    4.4896408732
     C     0.6547093250    2.1777934425    3.9752747404
     H    -0.4240429679   -1.4065429726    3.7012767795
     H    -1.6612298965    0.3304954300    3.4935871730
     H     2.1547081531   -0.8833508817    4.1266932235
     H     3.9863949416    0.4963882077    5.0416515134
     H     3.7046396281    2.9549932621    5.2700725596
     H     1.5615476029    4.0230560647    4.5996220362
     H    -0.2749310395    2.6547651829    3.6816331060
     O     0.1162287023    0.3252759383   -1.2133996283
